<?xml version="1.0" encoding="UTF-8"?>

<!-- generated on Fri Jul 19 07:38:13 2019 by Eclipse SUMO netedit Version 1.2.0
<configuration xmlns:xsi="http://www.w3.org/2001/XMLSchema-instance" xsi:noNamespaceSchemaLocation="http://sumo.dlr.de/xsd/netconvertConfiguration.xsd">

    <input>
        <sumo-net-file value="/Users/danielshin/Desktop/Network/EditedNetwork.net.xml"/>
    </input>

    <output>
        <output-file value="/Users/danielshin/Desktop/Network/DetectorEditFinal.net.xml"/>
    </output>

    <processing>
        <geometry.max-grade.fix value="false"/>
        <offset.disable-normalization value="true"/>
        <lefthand value="false"/>
    </processing>

    <junctions>
        <no-turnarounds value="true"/>
        <junctions.corner-detail value="5"/>
        <junctions.limit-turn-speed value="5.5"/>
        <rectangular-lane-cut value="false"/>
    </junctions>

    <pedestrian>
        <walkingareas value="false"/>
    </pedestrian>

</configuration>
-->

<net version="1.1" junctionCornerDetail="5" limitTurnSpeed="5.50" xmlns:xsi="http://www.w3.org/2001/XMLSchema-instance" xsi:noNamespaceSchemaLocation="http://sumo.dlr.de/xsd/net_file.xsd">

    <location netOffset="-520564.24,-3984036.45" convBoundary="540.57,0.00,17429.49,15684.89" origBoundary="-86.771408,35.976881,-86.578350,36.167690" projParameter="+proj=utm +zone=16 +ellps=WGS84 +datum=WGS84 +units=m +no_defs"/>

    <type id="highway.bridleway" priority="1" numLanes="1" speed="2.78" allow="pedestrian" oneway="1" width="2.00"/>
    <type id="highway.bus_guideway" priority="1" numLanes="1" speed="27.78" allow="bus" oneway="1"/>
    <type id="highway.cycleway" priority="1" numLanes="1" speed="8.33" allow="bicycle" oneway="0" width="1.00"/>
    <type id="highway.footway" priority="1" numLanes="1" speed="2.78" allow="pedestrian" oneway="1" width="2.00"/>
    <type id="highway.ford" priority="1" numLanes="1" speed="2.78" allow="army" oneway="0"/>
    <type id="highway.living_street" priority="3" numLanes="1" speed="2.78" disallow="tram rail_urban rail rail_electric ship" oneway="0"/>
    <type id="highway.motorway" priority="13" numLanes="2" speed="44.44" allow="private emergency authority army vip passenger hov taxi bus coach delivery truck trailer motorcycle evehicle custom1 custom2" oneway="1"/>
    <type id="highway.motorway_link" priority="12" numLanes="1" speed="22.22" allow="private emergency authority army vip passenger hov taxi bus coach delivery truck trailer motorcycle evehicle custom1 custom2" oneway="1"/>
    <type id="highway.path" priority="1" numLanes="1" speed="2.78" allow="bicycle pedestrian" oneway="1" width="2.00"/>
    <type id="highway.pedestrian" priority="1" numLanes="1" speed="2.78" allow="pedestrian" oneway="1" width="2.00"/>
    <type id="highway.primary" priority="9" numLanes="2" speed="27.78" disallow="tram rail_urban rail rail_electric ship" oneway="0"/>
    <type id="highway.primary_link" priority="8" numLanes="1" speed="22.22" disallow="tram rail_urban rail rail_electric ship" oneway="0"/>
    <type id="highway.raceway" priority="14" numLanes="2" speed="83.33" allow="vip" oneway="0"/>
    <type id="highway.residential" priority="4" numLanes="1" speed="13.89" disallow="tram rail_urban rail rail_electric ship" oneway="0"/>
    <type id="highway.secondary" priority="7" numLanes="2" speed="27.78" disallow="tram rail_urban rail rail_electric ship" oneway="0"/>
    <type id="highway.secondary_link" priority="6" numLanes="1" speed="22.22" disallow="tram rail_urban rail rail_electric ship" oneway="0"/>
    <type id="highway.service" priority="2" numLanes="1" speed="5.56" allow="delivery bicycle pedestrian" oneway="0"/>
    <type id="highway.stairs" priority="1" numLanes="1" speed="1.39" allow="pedestrian" oneway="1" width="2.00"/>
    <type id="highway.step" priority="1" numLanes="1" speed="1.39" allow="pedestrian" oneway="1" width="2.00"/>
    <type id="highway.steps" priority="1" numLanes="1" speed="1.39" allow="pedestrian" oneway="1" width="2.00"/>
    <type id="highway.tertiary" priority="6" numLanes="1" speed="22.22" disallow="tram rail_urban rail rail_electric ship" oneway="0"/>
    <type id="highway.tertiary_link" priority="5" numLanes="1" speed="22.22" disallow="tram rail_urban rail rail_electric ship" oneway="0"/>
    <type id="highway.track" priority="1" numLanes="1" speed="5.56" disallow="tram rail_urban rail rail_electric ship" oneway="0"/>
    <type id="highway.trunk" priority="11" numLanes="2" speed="27.78" disallow="tram rail_urban rail rail_electric bicycle pedestrian ship" oneway="0"/>
    <type id="highway.trunk_link" priority="10" numLanes="1" speed="22.22" disallow="tram rail_urban rail rail_electric bicycle pedestrian ship" oneway="0"/>
    <type id="highway.unclassified" priority="5" numLanes="1" speed="13.89" disallow="tram rail_urban rail rail_electric ship" oneway="0"/>
    <type id="highway.unsurfaced" priority="1" numLanes="1" speed="8.33" disallow="tram rail_urban rail rail_electric ship" oneway="0"/>
    <type id="railway.light_rail" priority="15" numLanes="1" speed="27.78" allow="rail_urban" oneway="1"/>
    <type id="railway.preserved" priority="15" numLanes="1" speed="27.78" allow="rail" oneway="1"/>
    <type id="railway.rail" priority="15" numLanes="1" speed="83.33" allow="rail rail_electric" oneway="1"/>
    <type id="railway.subway" priority="15" numLanes="1" speed="27.78" allow="rail_urban" oneway="1"/>
    <type id="railway.tram" priority="15" numLanes="1" speed="13.89" allow="tram" oneway="1"/>

    <edge id=":108162411-AddedOffRampNode_0" function="internal">
        <lane id=":108162411-AddedOffRampNode_0_0" index="0" allow="private emergency authority army vip passenger hov taxi bus coach delivery truck trailer motorcycle evehicle custom1 custom2" speed="24.59" length="8.13" shape="4143.65,12825.61 4143.96,12823.11 4143.41,12821.31 4142.86,12819.50 4143.17,12817.00"/>
        <lane id=":108162411-AddedOffRampNode_0_1" index="1" allow="private emergency authority army vip passenger hov taxi bus coach delivery truck trailer motorcycle evehicle custom1 custom2" speed="24.59" length="8.13" shape="4143.65,12825.61 4146.20,12818.02"/>
        <lane id=":108162411-AddedOffRampNode_0_2" index="2" allow="private emergency authority army vip passenger hov taxi bus coach delivery truck trailer motorcycle evehicle custom1 custom2" speed="24.59" length="8.13" shape="4146.68,12826.63 4149.23,12819.05"/>
        <lane id=":108162411-AddedOffRampNode_0_3" index="3" allow="private emergency authority army vip passenger hov taxi bus coach delivery truck trailer motorcycle evehicle custom1 custom2" speed="24.59" length="8.13" shape="4149.71,12827.65 4152.26,12820.07"/>
        <lane id=":108162411-AddedOffRampNode_0_4" index="4" allow="private emergency authority army vip passenger hov taxi bus coach delivery truck trailer motorcycle evehicle custom1 custom2" speed="24.59" length="8.13" shape="4152.75,12828.67 4155.30,12821.09"/>
        <lane id=":108162411-AddedOffRampNode_0_5" index="5" allow="private emergency authority army vip passenger hov taxi bus coach delivery truck trailer motorcycle evehicle custom1 custom2" speed="24.59" length="8.13" shape="4155.78,12829.69 4158.33,12822.11"/>
    </edge>
    <edge id=":108162443#1-AddedOnRampNode_0" function="internal">
        <lane id=":108162443#1-AddedOnRampNode_0_0" index="0" allow="private emergency authority army vip passenger hov taxi bus coach delivery truck trailer motorcycle evehicle custom1 custom2" speed="31.29" length="8.00" shape="7695.62,7277.40 7700.77,7271.28"/>
        <lane id=":108162443#1-AddedOnRampNode_0_1" index="1" allow="private emergency authority army vip passenger hov taxi bus coach delivery truck trailer motorcycle evehicle custom1 custom2" speed="31.29" length="8.00" shape="7698.07,7279.46 7703.22,7273.34"/>
        <lane id=":108162443#1-AddedOnRampNode_0_2" index="2" allow="private emergency authority army vip passenger hov taxi bus coach delivery truck trailer motorcycle evehicle custom1 custom2" speed="31.29" length="8.00" shape="7700.52,7281.52 7705.67,7275.40"/>
        <lane id=":108162443#1-AddedOnRampNode_0_3" index="3" allow="private emergency authority army vip passenger hov taxi bus coach delivery truck trailer motorcycle evehicle custom1 custom2" speed="31.29" length="8.00" shape="7702.97,7283.58 7708.12,7277.46"/>
    </edge>
    <edge id=":108162449#2-AddedOffRampNode_0" function="internal">
        <lane id=":108162449#2-AddedOffRampNode_0_0" index="0" allow="private emergency authority army vip passenger hov taxi bus coach delivery truck trailer motorcycle evehicle custom1 custom2" speed="24.59" length="8.27" shape="3978.89,14552.73 3977.94,14550.41 3976.57,14549.10 3975.20,14547.80 3974.24,14545.48"/>
        <lane id=":108162449#2-AddedOffRampNode_0_1" index="1" allow="private emergency authority army vip passenger hov taxi bus coach delivery truck trailer motorcycle evehicle custom1 custom2" speed="24.59" length="8.27" shape="3978.89,14552.73 3977.38,14544.87"/>
        <lane id=":108162449#2-AddedOffRampNode_0_2" index="2" allow="private emergency authority army vip passenger hov taxi bus coach delivery truck trailer motorcycle evehicle custom1 custom2" speed="24.59" length="8.27" shape="3982.04,14552.12 3980.53,14544.27"/>
    </edge>
    <edge id=":108162449#2-AddedOnRampNode_0" function="internal">
        <lane id=":108162449#2-AddedOnRampNode_0_0" index="0" allow="private emergency authority army vip passenger hov taxi bus coach delivery truck trailer motorcycle evehicle custom1 custom2" speed="24.59" length="8.00" shape="3985.89,14700.47 3985.85,14692.47"/>
        <lane id=":108162449#2-AddedOnRampNode_0_1" index="1" allow="private emergency authority army vip passenger hov taxi bus coach delivery truck trailer motorcycle evehicle custom1 custom2" speed="24.59" length="8.00" shape="3989.09,14700.46 3989.05,14692.46"/>
    </edge>
    <edge id=":121304368#0-AddedOffRampNode_0" function="internal">
        <lane id=":121304368#0-AddedOffRampNode_0_0" index="0" allow="private emergency authority army vip passenger hov taxi bus coach delivery truck trailer motorcycle evehicle custom1 custom2" speed="24.59" length="8.20" shape="3997.60,13430.86 3997.48,13433.37 3998.16,13435.13 3998.84,13436.89 3998.72,13439.40"/>
        <lane id=":121304368#0-AddedOffRampNode_0_1" index="1" allow="private emergency authority army vip passenger hov taxi bus coach delivery truck trailer motorcycle evehicle custom1 custom2" speed="24.59" length="8.20" shape="3997.60,13430.86 3995.62,13438.61"/>
        <lane id=":121304368#0-AddedOffRampNode_0_2" index="2" allow="private emergency authority army vip passenger hov taxi bus coach delivery truck trailer motorcycle evehicle custom1 custom2" speed="24.59" length="8.20" shape="3994.50,13430.07 3992.52,13437.82"/>
        <lane id=":121304368#0-AddedOffRampNode_0_3" index="3" allow="private emergency authority army vip passenger hov taxi bus coach delivery truck trailer motorcycle evehicle custom1 custom2" speed="24.59" length="8.20" shape="3991.40,13429.27 3989.42,13437.02"/>
    </edge>
    <edge id=":121304377#1-AddedOnRampNode_0" function="internal">
        <lane id=":121304377#1-AddedOnRampNode_0_0" index="0" allow="private emergency authority army vip passenger hov taxi bus coach delivery truck trailer motorcycle evehicle custom1 custom2" speed="24.59" length="8.00" shape="4503.83,12044.44 4507.93,12037.56"/>
        <lane id=":121304377#1-AddedOnRampNode_0_1" index="1" allow="private emergency authority army vip passenger hov taxi bus coach delivery truck trailer motorcycle evehicle custom1 custom2" speed="24.59" length="8.00" shape="4506.58,12046.08 4510.68,12039.20"/>
        <lane id=":121304377#1-AddedOnRampNode_0_2" index="2" allow="private emergency authority army vip passenger hov taxi bus coach delivery truck trailer motorcycle evehicle custom1 custom2" speed="24.59" length="8.00" shape="4509.33,12047.72 4513.42,12040.84"/>
        <lane id=":121304377#1-AddedOnRampNode_0_3" index="3" allow="private emergency authority army vip passenger hov taxi bus coach delivery truck trailer motorcycle evehicle custom1 custom2" speed="24.59" length="8.00" shape="4512.08,12049.35 4516.17,12042.48"/>
    </edge>
    <edge id=":121304377#2-AddedOnRampNode_0" function="internal">
        <lane id=":121304377#2-AddedOnRampNode_0_0" index="0" allow="private emergency authority army vip passenger hov taxi bus coach delivery truck trailer motorcycle evehicle custom1 custom2" speed="24.59" length="8.00" shape="4684.23,11788.41 4689.37,11782.29"/>
        <lane id=":121304377#2-AddedOnRampNode_0_1" index="1" allow="private emergency authority army vip passenger hov taxi bus coach delivery truck trailer motorcycle evehicle custom1 custom2" speed="24.59" length="8.00" shape="4686.67,11790.47 4691.82,11784.35"/>
        <lane id=":121304377#2-AddedOnRampNode_0_2" index="2" allow="private emergency authority army vip passenger hov taxi bus coach delivery truck trailer motorcycle evehicle custom1 custom2" speed="24.59" length="8.00" shape="4689.12,11792.53 4694.27,11786.41"/>
        <lane id=":121304377#2-AddedOnRampNode_0_3" index="3" allow="private emergency authority army vip passenger hov taxi bus coach delivery truck trailer motorcycle evehicle custom1 custom2" speed="24.59" length="8.00" shape="4691.57,11794.59 4696.72,11788.47"/>
    </edge>
    <edge id=":123422478#0-AddedOffRampNode_0" function="internal">
        <lane id=":123422478#0-AddedOffRampNode_0_0" index="0" allow="private emergency authority army vip passenger hov taxi bus coach delivery truck trailer motorcycle evehicle custom1 custom2" speed="22.22" length="8.27" shape="4108.67,14847.36 4110.42,14849.16 4112.18,14849.86 4113.93,14850.56 4115.69,14852.36"/>
        <lane id=":123422478#0-AddedOffRampNode_0_1" index="1" allow="private emergency authority army vip passenger hov taxi bus coach delivery truck trailer motorcycle evehicle custom1 custom2" speed="22.22" length="8.27" shape="4108.67,14847.36 4112.99,14854.09"/>
        <lane id=":123422478#0-AddedOffRampNode_0_2" index="2" allow="private emergency authority army vip passenger hov taxi bus coach delivery truck trailer motorcycle evehicle custom1 custom2" speed="22.22" length="8.27" shape="4105.98,14849.09 4110.30,14855.82"/>
    </edge>
    <edge id=":123422482-AddedOffRampNode_0" function="internal">
        <lane id=":123422482-AddedOffRampNode_0_0" index="0" allow="private emergency authority army vip passenger hov taxi bus coach delivery truck trailer motorcycle evehicle custom1 custom2" speed="44.44" length="8.27" shape="3969.01,14112.18 3970.31,14114.33 3971.86,14115.41 3973.42,14116.49 3974.72,14118.64"/>
        <lane id=":123422482-AddedOffRampNode_0_1" index="1" allow="private emergency authority army vip passenger hov taxi bus coach delivery truck trailer motorcycle evehicle custom1 custom2" speed="44.44" length="8.27" shape="3969.01,14112.18 3971.71,14119.72"/>
        <lane id=":123422482-AddedOffRampNode_0_2" index="2" allow="private emergency authority army vip passenger hov taxi bus coach delivery truck trailer motorcycle evehicle custom1 custom2" speed="44.44" length="8.27" shape="3966.00,14113.26 3968.69,14120.79"/>
    </edge>
    <edge id=":1241355267_0" function="internal">
        <lane id=":1241355267_0_0" index="0" allow="private emergency authority army vip passenger hov taxi bus coach delivery truck trailer motorcycle evehicle custom1 custom2" speed="24.59" length="7.54" shape="3934.79,13558.41 3935.26,13556.26 3935.55,13554.78 3935.76,13553.28 3936.03,13551.10"/>
        <lane id=":1241355267_0_1" index="1" allow="private emergency authority army vip passenger hov taxi bus coach delivery truck trailer motorcycle evehicle custom1 custom2" speed="24.59" length="7.54" shape="3937.93,13559.02 3938.42,13556.80 3938.71,13555.27 3938.94,13553.73 3939.20,13551.47"/>
    </edge>
    <edge id=":1241355267_2" function="internal">
        <lane id=":1241355267_2_0" index="0" allow="private emergency authority army vip passenger hov taxi bus coach delivery truck trailer motorcycle evehicle custom1 custom2" speed="34.52" length="7.90" shape="3941.17,13559.65 3942.38,13551.84"/>
    </edge>
    <edge id=":1241355972_0" function="internal">
        <lane id=":1241355972_0_0" index="0" allow="private emergency authority army vip passenger hov taxi bus coach delivery truck trailer motorcycle evehicle custom1 custom2" speed="22.22" length="7.99" shape="3998.57,14208.07 3999.98,14215.94"/>
    </edge>
    <edge id=":1241355972_1" function="internal">
        <lane id=":1241355972_1_0" index="0" allow="private emergency authority army vip passenger hov taxi bus coach delivery truck trailer motorcycle evehicle custom1 custom2" speed="22.22" length="7.72" shape="3995.44,14208.73 3996.74,14216.43"/>
        <lane id=":1241355972_1_1" index="1" allow="private emergency authority army vip passenger hov taxi bus coach delivery truck trailer motorcycle evehicle custom1 custom2" speed="22.22" length="7.72" shape="3992.31,14209.38 3993.57,14216.90"/>
    </edge>
    <edge id=":1241356615_0" function="internal">
        <lane id=":1241356615_0_0" index="0" allow="private emergency authority army vip passenger hov taxi bus coach delivery truck trailer motorcycle evehicle custom1 custom2" speed="33.33" length="7.95" shape="3994.55,14493.33 3993.71,14485.42"/>
    </edge>
    <edge id=":1241356615_1" function="internal">
        <lane id=":1241356615_1_0" index="0" allow="private emergency authority army vip passenger hov taxi bus coach delivery truck trailer motorcycle evehicle custom1 custom2" speed="44.44" length="8.03" shape="3997.73,14493.03 3997.00,14485.04"/>
    </edge>
    <edge id=":124809167#1-AddedOffRampNode_0" function="internal">
        <lane id=":124809167#1-AddedOffRampNode_0_0" index="0" allow="private emergency authority army vip passenger hov taxi bus coach delivery truck trailer motorcycle evehicle custom1 custom2" speed="31.29" length="8.16" shape="7084.61,8181.72 7085.28,8179.30 7084.99,8177.43 7084.71,8175.56 7085.38,8173.14"/>
        <lane id=":124809167#1-AddedOffRampNode_0_1" index="1" allow="private emergency authority army vip passenger hov taxi bus coach delivery truck trailer motorcycle evehicle custom1 custom2" speed="31.29" length="8.16" shape="7084.61,8181.72 7088.23,8174.59"/>
        <lane id=":124809167#1-AddedOffRampNode_0_2" index="2" allow="private emergency authority army vip passenger hov taxi bus coach delivery truck trailer motorcycle evehicle custom1 custom2" speed="31.29" length="8.16" shape="7087.46,8183.17 7091.09,8176.04"/>
        <lane id=":124809167#1-AddedOffRampNode_0_3" index="3" allow="private emergency authority army vip passenger hov taxi bus coach delivery truck trailer motorcycle evehicle custom1 custom2" speed="31.29" length="8.16" shape="7090.31,8184.62 7093.94,8177.49"/>
        <lane id=":124809167#1-AddedOffRampNode_0_4" index="4" allow="private emergency authority army vip passenger hov taxi bus coach delivery truck trailer motorcycle evehicle custom1 custom2" speed="31.29" length="8.16" shape="7093.16,8186.08 7096.79,8178.94"/>
    </edge>
    <edge id=":124809167#1-AddedOnRampNode_0" function="internal">
        <lane id=":124809167#1-AddedOnRampNode_0_0" index="0" allow="private emergency authority army vip passenger hov taxi bus coach delivery truck trailer motorcycle evehicle custom1 custom2" speed="31.29" length="8.00" shape="6621.43,9103.48 6624.89,9096.27"/>
        <lane id=":124809167#1-AddedOnRampNode_0_1" index="1" allow="private emergency authority army vip passenger hov taxi bus coach delivery truck trailer motorcycle evehicle custom1 custom2" speed="31.29" length="8.00" shape="6624.31,9104.86 6627.78,9097.65"/>
        <lane id=":124809167#1-AddedOnRampNode_0_2" index="2" allow="private emergency authority army vip passenger hov taxi bus coach delivery truck trailer motorcycle evehicle custom1 custom2" speed="31.29" length="8.00" shape="6627.20,9106.25 6630.66,9099.04"/>
        <lane id=":124809167#1-AddedOnRampNode_0_3" index="3" allow="private emergency authority army vip passenger hov taxi bus coach delivery truck trailer motorcycle evehicle custom1 custom2" speed="31.29" length="8.00" shape="6630.08,9107.63 6633.55,9100.42"/>
    </edge>
    <edge id=":124809167#2-AddedOffRampNode_0" function="internal">
        <lane id=":124809167#2-AddedOffRampNode_0_0" index="0" allow="private emergency authority army vip passenger hov taxi bus coach delivery truck trailer motorcycle evehicle custom1 custom2" speed="31.29" length="8.16" shape="7327.18,7730.09 7328.09,7727.75 7328.00,7725.86 7327.91,7723.97 7328.83,7721.63"/>
        <lane id=":124809167#2-AddedOffRampNode_0_1" index="1" allow="private emergency authority army vip passenger hov taxi bus coach delivery truck trailer motorcycle evehicle custom1 custom2" speed="31.29" length="8.16" shape="7327.18,7730.09 7331.51,7723.36"/>
        <lane id=":124809167#2-AddedOffRampNode_0_2" index="2" allow="private emergency authority army vip passenger hov taxi bus coach delivery truck trailer motorcycle evehicle custom1 custom2" speed="31.29" length="8.16" shape="7329.86,7731.82 7334.20,7725.10"/>
        <lane id=":124809167#2-AddedOffRampNode_0_3" index="3" allow="private emergency authority army vip passenger hov taxi bus coach delivery truck trailer motorcycle evehicle custom1 custom2" speed="31.29" length="8.16" shape="7332.55,7733.56 7336.89,7726.84"/>
        <lane id=":124809167#2-AddedOffRampNode_0_4" index="4" allow="private emergency authority army vip passenger hov taxi bus coach delivery truck trailer motorcycle evehicle custom1 custom2" speed="31.29" length="8.16" shape="7335.24,7735.30 7339.58,7728.57"/>
    </edge>
    <edge id=":124809170#2-AddedOffRampNode_0" function="internal">
        <lane id=":124809170#2-AddedOffRampNode_0_0" index="0" allow="private emergency authority army vip passenger hov taxi bus coach delivery truck trailer motorcycle evehicle custom1 custom2" speed="31.29" length="8.16" shape="4745.38,11763.96 4744.12,11766.13 4743.91,11768.01 4743.71,11769.89 4742.44,11772.06"/>
        <lane id=":124809170#2-AddedOffRampNode_0_1" index="1" allow="private emergency authority army vip passenger hov taxi bus coach delivery truck trailer motorcycle evehicle custom1 custom2" speed="31.29" length="8.16" shape="4745.38,11763.96 4740.05,11769.92"/>
        <lane id=":124809170#2-AddedOffRampNode_0_2" index="2" allow="private emergency authority army vip passenger hov taxi bus coach delivery truck trailer motorcycle evehicle custom1 custom2" speed="31.29" length="8.16" shape="4743.00,11761.83 4737.67,11767.79"/>
        <lane id=":124809170#2-AddedOffRampNode_0_3" index="3" allow="private emergency authority army vip passenger hov taxi bus coach delivery truck trailer motorcycle evehicle custom1 custom2" speed="31.29" length="8.16" shape="4740.61,11759.69 4735.28,11765.66"/>
        <lane id=":124809170#2-AddedOffRampNode_0_4" index="4" allow="private emergency authority army vip passenger hov taxi bus coach delivery truck trailer motorcycle evehicle custom1 custom2" speed="31.29" length="8.16" shape="4738.23,11757.56 4732.89,11763.53"/>
    </edge>
    <edge id=":124809170#2-AddedOnRampNode_0" function="internal">
        <lane id=":124809170#2-AddedOnRampNode_0_0" index="0" allow="private emergency authority army vip passenger hov taxi bus coach delivery truck trailer motorcycle evehicle custom1 custom2" speed="31.29" length="8.00" shape="6279.57,9781.01 6275.16,9787.68"/>
        <lane id=":124809170#2-AddedOnRampNode_0_1" index="1" allow="private emergency authority army vip passenger hov taxi bus coach delivery truck trailer motorcycle evehicle custom1 custom2" speed="31.29" length="8.00" shape="6276.90,9779.25 6272.49,9785.92"/>
        <lane id=":124809170#2-AddedOnRampNode_0_2" index="2" allow="private emergency authority army vip passenger hov taxi bus coach delivery truck trailer motorcycle evehicle custom1 custom2" speed="31.29" length="8.00" shape="6274.24,9777.48 6269.82,9784.15"/>
        <lane id=":124809170#2-AddedOnRampNode_0_3" index="3" allow="private emergency authority army vip passenger hov taxi bus coach delivery truck trailer motorcycle evehicle custom1 custom2" speed="31.29" length="8.00" shape="6271.57,9775.72 6267.15,9782.39"/>
    </edge>
    <edge id=":1376429395_0" function="internal">
        <lane id=":1376429395_0_0" index="0" allow="private emergency authority army vip passenger hov taxi bus coach delivery truck trailer motorcycle evehicle custom1 custom2" speed="22.22" length="8.21" shape="4026.62,14524.51 4026.97,14526.89 4027.59,14528.47 4028.21,14530.05 4028.56,14532.44"/>
    </edge>
    <edge id=":1913884067_0" function="internal">
        <lane id=":1913884067_0_0" index="0" allow="private emergency authority army vip passenger hov taxi bus coach delivery truck trailer motorcycle evehicle custom1 custom2" speed="26.75" length="8.12" shape="7381.76,7645.94 7386.68,7639.48"/>
    </edge>
    <edge id=":1913884067_1" function="internal">
        <lane id=":1913884067_1_0" index="0" allow="private emergency authority army vip passenger hov taxi bus coach delivery truck trailer motorcycle evehicle custom1 custom2" speed="31.29" length="7.93" shape="7384.33,7647.85 7389.21,7641.46"/>
        <lane id=":1913884067_1_1" index="1" allow="private emergency authority army vip passenger hov taxi bus coach delivery truck trailer motorcycle evehicle custom1 custom2" speed="31.29" length="7.93" shape="7386.90,7649.76 7391.73,7643.42"/>
        <lane id=":1913884067_1_2" index="2" allow="private emergency authority army vip passenger hov taxi bus coach delivery truck trailer motorcycle evehicle custom1 custom2" speed="31.29" length="7.93" shape="7389.47,7651.67 7394.26,7645.39"/>
        <lane id=":1913884067_1_3" index="3" allow="private emergency authority army vip passenger hov taxi bus coach delivery truck trailer motorcycle evehicle custom1 custom2" speed="31.29" length="7.93" shape="7392.04,7653.57 7396.78,7647.36"/>
    </edge>
    <edge id=":202177450_0" function="internal">
        <lane id=":202177450_0_0" index="0" allow="private emergency authority army vip passenger hov taxi bus coach delivery truck trailer motorcycle evehicle custom1 custom2" speed="26.75" length="7.96" shape="7628.79,7351.81 7633.96,7345.76"/>
    </edge>
    <edge id=":202177450_1" function="internal">
        <lane id=":202177450_1_0" index="0" allow="private emergency authority army vip passenger hov taxi bus coach delivery truck trailer motorcycle evehicle custom1 custom2" speed="31.29" length="8.01" shape="7631.26,7353.91 7636.41,7347.82"/>
        <lane id=":202177450_1_1" index="1" allow="private emergency authority army vip passenger hov taxi bus coach delivery truck trailer motorcycle evehicle custom1 custom2" speed="31.29" length="8.01" shape="7633.70,7355.98 7638.86,7349.88"/>
        <lane id=":202177450_1_2" index="2" allow="private emergency authority army vip passenger hov taxi bus coach delivery truck trailer motorcycle evehicle custom1 custom2" speed="31.29" length="8.01" shape="7636.13,7358.06 7641.31,7351.94"/>
        <lane id=":202177450_1_3" index="3" allow="private emergency authority army vip passenger hov taxi bus coach delivery truck trailer motorcycle evehicle custom1 custom2" speed="31.29" length="8.01" shape="7638.57,7360.13 7643.76,7354.00"/>
    </edge>
    <edge id=":202177824_0" function="internal">
        <lane id=":202177824_0_0" index="0" allow="private emergency authority army vip passenger hov taxi bus coach delivery truck trailer motorcycle evehicle custom1 custom2" speed="26.75" length="7.94" shape="6633.27,9166.41 6629.65,9173.47"/>
        <lane id=":202177824_0_1" index="1" allow="private emergency authority army vip passenger hov taxi bus coach delivery truck trailer motorcycle evehicle custom1 custom2" speed="26.75" length="7.94" shape="6630.43,9164.94 6626.79,9172.01"/>
    </edge>
    <edge id=":202177824_2" function="internal">
        <lane id=":202177824_2_0" index="0" allow="private emergency authority army vip passenger hov taxi bus coach delivery truck trailer motorcycle evehicle custom1 custom2" speed="31.29" length="8.02" shape="6627.59,9163.46 6623.93,9170.56"/>
        <lane id=":202177824_2_1" index="1" allow="private emergency authority army vip passenger hov taxi bus coach delivery truck trailer motorcycle evehicle custom1 custom2" speed="31.29" length="8.02" shape="6624.75,9161.99 6621.08,9169.11"/>
        <lane id=":202177824_2_2" index="2" allow="private emergency authority army vip passenger hov taxi bus coach delivery truck trailer motorcycle evehicle custom1 custom2" speed="31.29" length="8.02" shape="6621.91,9160.51 6618.23,9167.66"/>
        <lane id=":202177824_2_3" index="3" allow="private emergency authority army vip passenger hov taxi bus coach delivery truck trailer motorcycle evehicle custom1 custom2" speed="31.29" length="8.02" shape="6619.07,9159.04 6615.37,9166.21"/>
    </edge>
    <edge id=":202185420_0" function="internal">
        <lane id=":202185420_0_0" index="0" allow="private emergency authority army vip passenger hov taxi bus coach delivery truck trailer motorcycle evehicle custom1 custom2" speed="26.75" length="7.81" shape="6575.13,9192.01 6578.73,9185.07"/>
    </edge>
    <edge id=":202185420_1" function="internal">
        <lane id=":202185420_1_0" index="0" allow="private emergency authority army vip passenger hov taxi bus coach delivery truck trailer motorcycle evehicle custom1 custom2" speed="31.29" length="7.99" shape="6578.12,9193.52 6581.61,9186.45"/>