<?xml version="1.0" encoding="UTF-8"?>

<!-- generated on Fri Jul 19 11:09:36 2019 by Eclipse SUMO jtrrouter Version v1_1_0+0000-2147d155b1
<configuration xmlns:xsi="http://www.w3.org/2001/XMLSchema-instance" xsi:noNamespaceSchemaLocation="http://sumo.dlr.de/xsd/jtrrouterConfiguration.xsd">

    <input>
        <net-file value="/home/mesto/flow/MyTests/FinalNetwork.net.xml"/>
        <route-files value="/home/mesto/flow/MyTests/flows.xml"/>
    </input>

    <output>
        <output-file value="/home/mesto/flow/MyTests/turnRoutes.rou.xml"/>
    </output>

    <processing>
        <route-steps value="200"/>
        <no-internal-links value="true"/>
        <turn-defaults value="10,90"/>
    </processing>

</configuration>
-->

<routes xmlns:xsi="http://www.w3.org/2001/XMLSchema-instance" xsi:noNamespaceSchemaLocation="http://sumo.dlr.de/xsd/routes_file.xsd">
    <vType id="human" length="5.00" minGap="2.50" maxSpeed="70.00" speedFactor="1.00" accel="2.6" decel="4.5" sigma="0.5"/>
    <vehicle id="flow_0.0" type="human" depart="1.00" departLane="4" departPos="0.00" departSpeed="30.00">
        <route edges="634155175 634155175-AddedOffRampEdge 108162065#1 635078745-AddedOnRampEdge 635078745 635078551-AddedOnRampEdge 635078551 635078551-AddedOffRampEdge 124809170#1 124809170#2-AddedOnRampEdge 124809170#2 124809170#2-AddedOffRampEdge 277208914#1 277208914#2-AddedOnRampEdge 277208914#2 121304376 173718411 110861819 121304368#0 121304368#0-AddedOffRampEdge 121304368#1 121304370"/>
    </vehicle>
    <vehicle id="flow_0.1" type="human" depart="1.13" departLane="4" departPos="0.00" departSpeed="30.00">
        <route edges="634155175 634155175-AddedOffRampEdge 108162065#1 635078745-AddedOnRampEdge 635078745 635078551-AddedOnRampEdge 635078551 635078551-AddedOffRampEdge 124809170#1 124809170#2-AddedOnRampEdge 124809170#2 124809170#2-AddedOffRampEdge 277208914#1 277208914#2-AddedOnRampEdge 277208914#2 121304376 173718411 110861819 121304368#0 121304368#0-AddedOffRampEdge 121304368#1 121304370"/>
    </vehicle>
    <vehicle id="flow_0.2" type="human" depart="1.26" departLane="4" departPos="0.00" departSpeed="30.00">
        <route edges="634155175 634155175-AddedOffRampEdge 108162065#1 635078745-AddedOnRampEdge 635078745 635078551-AddedOnRampEdge 635078551 635078551-AddedOffRampEdge 124809170#1 124809170#2-AddedOnRampEdge 124809170#2 124809170#2-AddedOffRampEdge 277208914#1 277208914#2-AddedOnRampEdge 277208914#2 121304376 173718411 110861819 121304368#0 121304368#0-AddedOffRampEdge 121304368#1 121304370"/>
    </vehicle>
    <vehicle id="flow_0.3" type="human" depart="1.39" departLane="4" departPos="0.00" departSpeed="30.00">
        <route edges="634155175 634155175-AddedOffRampEdge 108162065#1 635078745-AddedOnRampEdge 635078745 635078551-AddedOnRampEdge 635078551 635078551-AddedOffRampEdge 124809170#1 124809170#2-AddedOnRampEdge 124809170#2 124809170#2-AddedOffRampEdge 277208914#1 277208914#2-AddedOnRampEdge 277208914#2 121304376 173718411 110861819 121304368#0 121304368#0-AddedOffRampEdge 121304368#1 121304370"/>
    </vehicle>
    <vehicle id="flow_0.4" type="human" depart="1.52" departLane="4" departPos="0.00" departSpeed="30.00">
        <route edges="634155175 634155175-AddedOffRampEdge 108162065#1 635078745-AddedOnRampEdge 635078745 635078551-AddedOnRampEdge 635078551 635078551-AddedOffRampEdge 124809170#1 124809170#2-AddedOnRampEdge 124809170#2 124809170#2-AddedOffRampEdge 277208914#1 277208914#2-AddedOnRampEdge 277208914#2 121304376 173718411 110861819 121304368#0 121304368#0-AddedOffRampEdge 121304368#1 121304370"/>
    </vehicle>
    <vehicle id="flow_0.5" type="human" depart="1.65" departLane="4" departPos="0.00" departSpeed="30.00">
        <route edges="634155175 634155175-AddedOffRampEdge 108162065#1 635078745-AddedOnRampEdge 635078745 635078551-AddedOnRampEdge 635078551 635078551-AddedOffRampEdge 124809170#1 124809170#2-AddedOnRampEdge 124809170#2 124809170#2-AddedOffRampEdge 277208914#1 277208914#2-AddedOnRampEdge 277208914#2 121304376 173718411 110861819 121304368#0 121304368#0-AddedOffRampEdge 121304368#1 121304370"/>
    </vehicle>
    <vehicle id="flow_0.6" type="human" depart="1.77" departLane="4" departPos="0.00" departSpeed="30.00">
        <route edges="634155175 634155175-AddedOffRampEdge 108162065#1 635078745-AddedOnRampEdge 635078745 635078551-AddedOnRampEdge 635078551 635078551-AddedOffRampEdge 124809170#1 124809170#2-AddedOnRampEdge 124809170#2 124809170#2-AddedOffRampEdge 277208914#1 277208914#2-AddedOnRampEdge 277208914#2 121304376 173718411 110861819 19441786 123422448#0"/>
    </vehicle>
    <vehicle id="flow_0.7" type="human" depart="1.90" departLane="4" departPos="0.00" departSpeed="30.00">
        <route edges="634155175 634155175-AddedOffRampEdge 108162065#1 635078745-AddedOnRampEdge 635078745 635078551-AddedOnRampEdge 635078551 635078551-AddedOffRampEdge 124809170#1 124809170#2-AddedOnRampEdge 124809170#2 124809170#2-AddedOffRampEdge 19444309#0"/>
    </vehicle>
    <vehicle id="flow_0.8" type="human" depart="2.03" departLane="4" departPos="0.00" departSpeed="30.00">
        <route edges="634155175 634155175-AddedOffRampEdge 108162065#1 635078745-AddedOnRampEdge 635078745 635078551-AddedOnRampEdge 635078551 635078551-AddedOffRampEdge 124809170#1 124809170#2-AddedOnRampEdge 124809170#2 124809170#2-AddedOffRampEdge 277208914#1 277208914#2-AddedOnRampEdge 277208914#2 121304376 173718411 110861819 121304368#0 121304368#0-AddedOffRampEdge 121304368#1 121304370"/>
    </vehicle>
    <vehicle id="flow_0.9" type="human" depart="2.16" departLane="4" departPos="0.00" departSpeed="30.00">
        <route edges="634155175 634155175-AddedOffRampEdge 108162065#1 635078745-AddedOnRampEdge 635078745 635078551-AddedOnRampEdge 635078551 635078551-AddedOffRampEdge 124809170#1 124809170#2-AddedOnRampEdge 124809170#2 124809170#2-AddedOffRampEdge 277208914#1 277208914#2-AddedOnRampEdge 277208914#2 121304376 173718411 110861819 121304368#0 121304368#0-AddedOffRampEdge 121304368#1 121304370"/>
    </vehicle>
    <vehicle id="flow_0.10" type="human" depart="2.29" departLane="4" departPos="0.00" departSpeed="30.00">
        <route edges="634155175 634155175-AddedOffRampEdge 108162065#1 635078745-AddedOnRampEdge 635078745 635078551-AddedOnRampEdge 635078551 635078551-AddedOffRampEdge 124809170#1 124809170#2-AddedOnRampEdge 124809170#2 124809170#2-AddedOffRampEdge 277208914#1 277208914#2-AddedOnRampEdge 277208914#2 121304376 173718411 110861819 121304368#0 121304368#0-AddedOffRampEdge 121304368#1 121304370"/>
    </vehicle>
    <vehicle id="flow_0.11" type="human" depart="2.42" departLane="4" departPos="0.00" departSpeed="30.00">
        <route edges="634155175 634155175-AddedOffRampEdge 19446657"/>
    </vehicle>
    <vehicle id="flow_0.12" type="human" depart="2.55" departLane="4" departPos="0.00" departSpeed="30.00">
        <route edges="634155175 634155175-AddedOffRampEdge 108162065#1 635078745-AddedOnRampEdge 635078745 635078551-AddedOnRampEdge 635078551 635078551-AddedOffRampEdge 124809170#1 124809170#2-AddedOnRampEdge 124809170#2 124809170#2-AddedOffRampEdge 277208914#1 277208914#2-AddedOnRampEdge 277208914#2 121304376 173718411 110861819 121304368#0 121304368#0-AddedOffRampEdge 121304368#1 121304370"/>
    </vehicle>
    <vehicle id="flow_0.13" type="human" depart="2.68" departLane="4" departPos="0.00" departSpeed="30.00">
        <route edges="634155175 634155175-AddedOffRampEdge 19446657"/>
    </vehicle>
    <vehicle id="flow_0.14" type="human" depart="2.81" departLane="4" departPos="0.00" departSpeed="30.00">
        <route edges="634155175 634155175-AddedOffRampEdge 108162065#1 635078745-AddedOnRampEdge 635078745 635078551-AddedOnRampEdge 635078551 635078551-AddedOffRampEdge 124809170#1 124809170#2-AddedOnRampEdge 124809170#2 124809170#2-AddedOffRampEdge 277208914#1 277208914#2-AddedOnRampEdge 277208914#2 121304376 173718411 110861819 121304368#0 121304368#0-AddedOffRampEdge 121304368#1 121304370"/>
    </vehicle>
    <vehicle id="flow_0.15" type="human" depart="2.94" departLane="4" departPos="0.00" departSpeed="30.00">
        <route edges="634155175 634155175-AddedOffRampEdge 108162065#1 635078745-AddedOnRampEdge 635078745 635078551-AddedOnRampEdge 635078551 635078551-AddedOffRampEdge 124809170#1 124809170#2-AddedOnRampEdge 124809170#2 124809170#2-AddedOffRampEdge 277208914#1 277208914#2-AddedOnRampEdge 277208914#2 121304376 173718411 110861819 121304368#0 121304368#0-AddedOffRampEdge 121304368#1 121304370"/>
    </vehicle>
    <vehicle id="flow_0.16" type="human" depart="3.06" departLane="4" departPos="0.00" departSpeed="30.00">
        <route edges="634155175 634155175-AddedOffRampEdge 108162065#1 635078745-AddedOnRampEdge 635078745 635078551-AddedOnRampEdge 635078551 635078551-AddedOffRampEdge 124809170#1 124809170#2-AddedOnRampEdge 124809170#2 124809170#2-AddedOffRampEdge 277208914#1 277208914#2-AddedOnRampEdge 277208914#2 121304376 173718411 110861819 121304368#0 121304368#0-AddedOffRampEdge 121304368#1 121304370"/>
    </vehicle>
    <vehicle id="flow_0.17" type="human" depart="3.19" departLane="4" departPos="0.00" departSpeed="30.00">
        <route edges="634155175 634155175-AddedOffRampEdge 108162065#1 635078745-AddedOnRampEdge 635078745 635078551-AddedOnRampEdge 635078551 635078551-AddedOffRampEdge 19440938"/>
    </vehicle>
    <vehicle id="flow_0.18" type="human" depart="3.32" departLane="4" departPos="0.00" departSpeed="30.00">
        <route edges="634155175 634155175-AddedOffRampEdge 108162065#1 635078745-AddedOnRampEdge 635078745 635078551-AddedOnRampEdge 635078551 635078551-AddedOffRampEdge 124809170#1 124809170#2-AddedOnRampEdge 124809170#2 124809170#2-AddedOffRampEdge 277208914#1 277208914#2-AddedOnRampEdge 277208914#2 121304376 173718411 110861819 121304368#0 121304368#0-AddedOffRampEdge 19446512 123422478#0 123422478#0-AddedOffRampEdge"/>
    </vehicle>
    <vehicle id="flow_0.19" type="human" depart="3.45" departLane="4" departPos="0.00" departSpeed="30.00">
        <route edges="634155175 634155175-AddedOffRampEdge 108162065#1 635078745-AddedOnRampEdge 635078745 635078551-AddedOnRampEdge 635078551 635078551-AddedOffRampEdge 124809170#1 124809170#2-AddedOnRampEdge 124809170#2 124809170#2-AddedOffRampEdge 277208914#1 277208914#2-AddedOnRampEdge 277208914#2 121304376 173718411 110861819 121304368#0 121304368#0-AddedOffRampEdge 121304368#1 121304370"/>
    </vehicle>
    <vehicle id="flow_0.20" type="human" depart="3.58" departLane="4" departPos="0.00" departSpeed="30.00">
        <route edges="634155175 634155175-AddedOffRampEdge 108162065#1 635078745-AddedOnRampEdge 635078745 635078551-AddedOnRampEdge 635078551 635078551-AddedOffRampEdge 124809170#1 124809170#2-AddedOnRampEdge 124809170#2 124809170#2-AddedOffRampEdge 277208914#1 277208914#2-AddedOnRampEdge 277208914#2 121304376 173718411 110861819 121304368#0 121304368#0-AddedOffRampEdge 121304368#1 121304370"/>
    </vehicle>
    <vehicle id="flow_0.21" type="human" depart="3.71" departLane="4" departPos="0.00" departSpeed="30.00">
        <route edges="634155175 634155175-AddedOffRampEdge 108162065#1 635078745-AddedOnRampEdge 635078745 635078551-AddedOnRampEdge 635078551 635078551-AddedOffRampEdge 124809170#1 124809170#2-AddedOnRampEdge 124809170#2 124809170#2-AddedOffRampEdge 277208914#1 277208914#2-AddedOnRampEdge 277208914#2 121304376 173718411 110861819 121304368#0 121304368#0-AddedOffRampEdge 121304368#1 121304370"/>
    </vehicle>
    <vehicle id="flow_0.22" type="human" depart="3.84" departLane="4" departPos="0.00" departSpeed="30.00">
        <route edges="634155175 634155175-AddedOffRampEdge 19446657"/>
    </vehicle>
    <vehicle id="flow_0.23" type="human" depart="3.97" departLane="4" departPos="0.00" departSpeed="30.00">
        <route edges="634155175 634155175-AddedOffRampEdge 108162065#1 635078745-AddedOnRampEdge 635078745 635078551-AddedOnRampEdge 635078551 635078551-AddedOffRampEdge 124809170#1 124809170#2-AddedOnRampEdge 124809170#2 124809170#2-AddedOffRampEdge 277208914#1 277208914#2-AddedOnRampEdge 277208914#2 121304376 173718411 110861819 121304368#0 121304368#0-AddedOffRampEdge 121304368#1 121304370"/>
    </vehicle>
    <vehicle id="flow_0.24" type="human" depart="4.10" departLane="4" departPos="0.00" departSpeed="30.00">
        <route edges="634155175 634155175-AddedOffRampEdge 108162065#1 635078745-AddedOnRampEdge 635078745 635078551-AddedOnRampEdge 635078551 635078551-AddedOffRampEdge 124809170#1 124809170#2-AddedOnRampEdge 124809170#2 124809170#2-AddedOffRampEdge 277208914#1 277208914#2-AddedOnRampEdge 277208914#2 121304376 173718411 110861819 121304368#0 121304368#0-AddedOffRampEdge 121304368#1 121304370"/>
    </vehicle>
    <vehicle id="flow_0.25" type="human" depart="4.22" departLane="4" departPos="0.00" departSpeed="30.00">
        <route edges="634155175 634155175-AddedOffRampEdge 19446657"/>
    </vehicle>
    <vehicle id="flow_0.26" type="human" depart="4.35" departLane="4" departPos="0.00" departSpeed="30.00">
        <route edges="634155175 634155175-AddedOffRampEdge 108162065#1 635078745-AddedOnRampEdge 635078745 635078551-AddedOnRampEdge 635078551 635078551-AddedOffRampEdge 124809170#1 124809170#2-AddedOnRampEdge 124809170#2 124809170#2-AddedOffRampEdge 277208914#1 277208914#2-AddedOnRampEdge 277208914#2 121304376 173718411 110861819 121304368#0 121304368#0-AddedOffRampEdge 121304368#1 121304370"/>
    </vehicle>
    <vehicle id="flow_0.27" type="human" depart="4.48" departLane="4" departPos="0.00" departSpeed="30.00">
        <route edges="634155175 634155175-AddedOffRampEdge 108162065#1 635078745-AddedOnRampEdge 635078745 635078551-AddedOnRampEdge 635078551 635078551-AddedOffRampEdge 124809170#1 124809170#2-AddedOnRampEdge 124809170#2 124809170#2-AddedOffRampEdge 277208914#1 277208914#2-AddedOnRampEdge 277208914#2 121304376 173718411 110861819 121304368#0 121304368#0-AddedOffRampEdge 121304368#1 121304370"/>
    </vehicle>
    <vehicle id="flow_0.28" type="human" depart="4.61" departLane="4" departPos="0.00" departSpeed="30.00">
        <route edges="634155175 634155175-AddedOffRampEdge 108162065#1 635078745-AddedOnRampEdge 635078745 635078551-AddedOnRampEdge 635078551 635078551-AddedOffRampEdge 124809170#1 124809170#2-AddedOnRampEdge 124809170#2 124809170#2-AddedOffRampEdge 277208914#1 277208914#2-AddedOnRampEdge 277208914#2 121304376 173718411 110861819 121304368#0 121304368#0-AddedOffRampEdge 121304368#1 121304370"/>
    </vehicle>
    <vehicle id="flow_0.29" type="human" depart="4.74" departLane="4" departPos="0.00" departSpeed="30.00">
        <route edges="634155175 634155175-AddedOffRampEdge 108162065#1 635078745-AddedOnRampEdge 635078745 635078551-AddedOnRampEdge 635078551 635078551-AddedOffRampEdge 124809170#1 124809170#2-AddedOnRampEdge 124809170#2 124809170#2-AddedOffRampEdge 277208914#1 277208914#2-AddedOnRampEdge 277208914#2 121304376 173718411 110861819 121304368#0 121304368#0-AddedOffRampEdge 121304368#1 121304370"/>
    </vehicle>
    <vehicle id="flow_0.30" type="human" depart="4.87" departLane="4" departPos="0.00" departSpeed="30.00">
        <route edges="634155175 634155175-AddedOffRampEdge 108162065#1 635078745-AddedOnRampEdge 635078745 635078551-AddedOnRampEdge 635078551 635078551-AddedOffRampEdge 124809170#1 124809170#2-AddedOnRampEdge 124809170#2 124809170#2-AddedOffRampEdge 277208914#1 277208914#2-AddedOnRampEdge 277208914#2 121304376 173718411 110861819 121304368#0 121304368#0-AddedOffRampEdge 121304368#1 121304370"/>
    </vehicle>
    <vehicle id="flow_0.31" type="human" depart="5.00" departLane="4" departPos="0.00" departSpeed="30.00">
        <route edges="634155175 634155175-AddedOffRampEdge 108162065#1 635078745-AddedOnRampEdge 635078745 635078551-AddedOnRampEdge 635078551 635078551-AddedOffRampEdge 124809170#1 124809170#2-AddedOnRampEdge 124809170#2 124809170#2-AddedOffRampEdge 277208914#1 277208914#2-AddedOnRampEdge 277208914#2 121304376 173718411 110861819 121304368#0 121304368#0-AddedOffRampEdge 121304368#1 121304370"/>
    </vehicle>
    <vehicle id="flow_0.32" type="human" depart="5.13" departLane="4" departPos="0.00" departSpeed="30.00">
        <route edges="634155175 634155175-AddedOffRampEdge 108162065#1 635078745-AddedOnRampEdge 635078745 635078551-AddedOnRampEdge 635078551 635078551-AddedOffRampEdge 124809170#1 124809170#2-AddedOnRampEdge 124809170#2 124809170#2-AddedOffRampEdge 277208914#1 277208914#2-AddedOnRampEdge 277208914#2 121304376 173718411 110861819 121304368#0 121304368#0-AddedOffRampEdge 121304368#1 121304370"/>
    </vehicle>
    <vehicle id="flow_0.33" type="human" depart="5.26" departLane="4" departPos="0.00" departSpeed="30.00">
        <route edges="634155175 634155175-AddedOffRampEdge 19446657"/>
    </vehicle>
    <vehicle id="flow_0.34" type="human" depart="5.39" departLane="4" departPos="0.00" departSpeed="30.00">
        <route edges="634155175 634155175-AddedOffRampEdge 108162065#1 635078745-AddedOnRampEdge 635078745 635078551-AddedOnRampEdge 635078551 635078551-AddedOffRampEdge 19440938"/>
    </vehicle>
    <vehicle id="flow_0.35" type="human" depart="5.51" departLane="4" departPos="0.00" departSpeed="30.00">
        <route edges="634155175 634155175-AddedOffRampEdge 108162065#1 635078745-AddedOnRampEdge 635078745 635078551-AddedOnRampEdge 635078551 635078551-AddedOffRampEdge 124809170#1 124809170#2-AddedOnRampEdge 124809170#2 124809170#2-AddedOffRampEdge 277208914#1 277208914#2-AddedOnRampEdge 277208914#2 121304376 173718411 110861819 121304368#0 121304368#0-AddedOffRampEdge 121304368#1 121304370"/>
    </vehicle>
    <vehicle id="flow_0.36" type="human" depart="5.64" departLane="4" departPos="0.00" departSpeed="30.00">
        <route edges="634155175 634155175-AddedOffRampEdge 108162065#1 635078745-AddedOnRampEdge 635078745 635078551-AddedOnRampEdge 635078551 635078551-AddedOffRampEdge 124809170#1 124809170#2-AddedOnRampEdge 124809170#2 124809170#2-AddedOffRampEdge 277208914#1 277208914#2-AddedOnRampEdge 277208914#2 121304376 173718411 110861819 121304368#0 121304368#0-AddedOffRampEdge 121304368#1 121304370"/>
    </vehicle>
    <vehicle id="flow_0.37" type="human" depart="5.77" departLane="4" departPos="0.00" departSpeed="30.00">
        <route edges="634155175 634155175-AddedOffRampEdge 108162065#1 635078745-AddedOnRampEdge 635078745 635078551-AddedOnRampEdge 635078551 635078551-AddedOffRampEdge 124809170#1 124809170#2-AddedOnRampEdge 124809170#2 124809170#2-AddedOffRampEdge 277208914#1 277208914#2-AddedOnRampEdge 277208914#2 121304376 173718411 110861819 121304368#0 121304368#0-AddedOffRampEdge 121304368#1 121304370"/>
    </vehicle>
    <vehicle id="flow_0.38" type="human" depart="5.90" departLane="4" departPos="0.00" departSpeed="30.00">
        <route edges="634155175 634155175-AddedOffRampEdge 108162065#1 635078745-AddedOnRampEdge 635078745 635078551-AddedOnRampEdge 635078551 635078551-AddedOffRampEdge 124809170#1 124809170#2-AddedOnRampEdge 124809170#2 124809170#2-AddedOffRampEdge 19444309#0"/>
    </vehicle>
    <vehicle id="flow_0.39" type="human" depart="6.03" departLane="4" departPos="0.00" departSpeed="30.00">
        <route edges="634155175 634155175-AddedOffRampEdge 108162065#1 635078745-AddedOnRampEdge 635078745 635078551-AddedOnRampEdge 635078551 635078551-AddedOffRampEdge 124809170#1 124809170#2-AddedOnRampEdge 124809170#2 124809170#2-AddedOffRampEdge 277208914#1 277208914#2-AddedOnRampEdge 277208914#2 121304376 173718411 110861819 121304368#0 121304368#0-AddedOffRampEdge 121304368#1 121304370"/>
    </vehicle>
    <vehicle id="flow_0.40" type="human" depart="6.16" departLane="4" departPos="0.00" departSpeed="30.00">
        <route edges="634155175 634155175-AddedOffRampEdge 108162065#1 635078745-AddedOnRampEdge 635078745 635078551-AddedOnRampEdge 635078551 635078551-AddedOffRampEdge 124809170#1 124809170#2-AddedOnRampEdge 124809170#2 124809170#2-AddedOffRampEdge 277208914#1 277208914#2-AddedOnRampEdge 277208914#2 121304376 173718411 110861819 121304368#0 121304368#0-AddedOffRampEdge 19446512 123422478#0 123422478#0-AddedOffRampEdge"/>
    </vehicle>
    <vehicle id="flow_0.41" type="human" depart="6.29" departLane="4" departPos="0.00" departSpeed="30.00">
        <route edges="634155175 634155175-AddedOffRampEdge 108162065#1 635078745-AddedOnRampEdge 635078745 635078551-AddedOnRampEdge 635078551 635078551-AddedOffRampEdge 124809170#1 124809170#2-AddedOnRampEdge 124809170#2 124809170#2-AddedOffRampEdge 277208914#1 277208914#2-AddedOnRampEdge 277208914#2 121304376 173718411 110861819 121304368#0 121304368#0-AddedOffRampEdge 121304368#1 121304370"/>
    </vehicle>
    <vehicle id="flow_0.42" type="human" depart="6.42" departLane="4" departPos="0.00" departSpeed="30.00">
        <route edges="634155175 634155175-AddedOffRampEdge 108162065#1 635078745-AddedOnRampEdge 635078745 635078551-AddedOnRampEdge 635078551 635078551-AddedOffRampEdge 124809170#1 124809170#2-AddedOnRampEdge 124809170#2 124809170#2-AddedOffRampEdge 277208914#1 277208914#2-AddedOnRampEdge 277208914#2 121304376 173718411 110861819 121304368#0 121304368#0-AddedOffRampEdge 19446512 123422478#0 123422478#0-AddedOffRampEdge"/>
    </vehicle>
    <vehicle id="flow_0.43" type="human" depart="6.55" departLane="4" departPos="0.00" departSpeed="30.00">
        <route edges="634155175 634155175-AddedOffRampEdge 108162065#1 635078745-AddedOnRampEdge 635078745 635078551-AddedOnRampEdge 635078551 635078551-AddedOffRampEdge 124809170#1 124809170#2-AddedOnRampEdge 124809170#2 124809170#2-AddedOffRampEdge 277208914#1 277208914#2-AddedOnRampEdge 277208914#2 121304376 173718411 110861819 121304368#0 121304368#0-AddedOffRampEdge 121304368#1 121304370"/>
    </vehicle>
    <vehicle id="flow_0.44" type="human" depart="6.68" departLane="4" departPos="0.00" departSpeed="30.00">
        <route edges="634155175 634155175-AddedOffRampEdge 108162065#1 635078745-AddedOnRampEdge 635078745 635078551-AddedOnRampEdge 635078551 635078551-AddedOffRampEdge 124809170#1 124809170#2-AddedOnRampEdge 124809170#2 124809170#2-AddedOffRampEdge 277208914#1 277208914#2-AddedOnRampEdge 277208914#2 121304376 173718411 110861819 121304368#0 121304368#0-AddedOffRampEdge 121304368#1 121304370"/>
    </vehicle>
    <vehicle id="flow_0.45" type="human" depart="6.80" departLane="4" departPos="0.00" departSpeed="30.00">
        <route edges="634155175 634155175-AddedOffRampEdge 108162065#1 635078745-AddedOnRampEdge 635078745 635078551-AddedOnRampEdge 635078551 635078551-AddedOffRampEdge 124809170#1 124809170#2-AddedOnRampEdge 124809170#2 124809170#2-AddedOffRampEdge 277208914#1 277208914#2-AddedOnRampEdge 277208914#2 121304376 173718411 110861819 121304368#0 121304368#0-AddedOffRampEdge 121304368#1 121304370"/>
    </vehicle>
    <vehicle id="flow_0.46" type="human" depart="6.93" departLane="4" departPos="0.00" departSpeed="30.00">
        <route edges="634155175 634155175-AddedOffRampEdge 19446657"/>
    </vehicle>
    <vehicle id="flow_0.47" type="human" depart="7.06" departLane="4" departPos="0.00" departSpeed="30.00">
        <route edges="634155175 634155175-AddedOffRampEdge 108162065#1 635078745-AddedOnRampEdge 635078745 635078551-AddedOnRampEdge 635078551 635078551-AddedOffRampEdge 124809170#1 124809170#2-AddedOnRampEdge 124809170#2 124809170#2-AddedOffRampEdge 277208914#1 277208914#2-AddedOnRampEdge 277208914#2 121304376 173718411 110861819 121304368#0 121304368#0-AddedOffRampEdge 121304368#1 121304370"/>
    </vehicle>
    <vehicle id="flow_0.48" type="human" depart="7.19" departLane="4" departPos="0.00" departSpeed="30.00">
        <route edges="634155175 634155175-AddedOffRampEdge 108162065#1 635078745-AddedOnRampEdge 635078745 635078551-AddedOnRampEdge 635078551 635078551-AddedOffRampEdge 124809170#1 124809170#2-AddedOnRampEdge 124809170#2 124809170#2-AddedOffRampEdge 277208914#1 277208914#2-AddedOnRampEdge 277208914#2 121304376 173718411 110861819 121304368#0 121304368#0-AddedOffRampEdge 121304368#1 121304370"/>
    </vehicle>
    <vehicle id="flow_0.49" type="human" depart="7.32" departLane="4" departPos="0.00" departSpeed="30.00">
        <route edges="634155175 634155175-AddedOffRampEdge 19446657"/>
    </vehicle>
    <vehicle id="flow_0.50" type="human" depart="7.45" departLane="4" departPos="0.00" departSpeed="30.00">
        <route edges="634155175 634155175-AddedOffRampEdge 108162065#1 635078745-AddedOnRampEdge 635078745 635078551-AddedOnRampEdge 635078551 635078551-AddedOffRampEdge 124809170#1 124809170#2-AddedOnRampEdge 124809170#2 124809170#2-AddedOffRampEdge 277208914#1 277208914#2-AddedOnRampEdge 277208914#2 121304376 173718411 110861819 121304368#0 121304368#0-AddedOffRampEdge 121304368#1 121304370"/>
    </vehicle>
    <vehicle id="flow_0.51" type="human" depart="7.58" departLane="4" departPos="0.00" departSpeed="30.00">
        <route edges="634155175 634155175-AddedOffRampEdge 108162065#1 635078745-AddedOnRampEdge 635078745 635078551-AddedOnRampEdge 635078551 635078551-AddedOffRampEdge 124809170#1 124809170#2-AddedOnRampEdge 124809170#2 124809170#2-AddedOffRampEdge 277208914#1 277208914#2-AddedOnRampEdge 277208914#2 121304376 173718411 110861819 121304368#0 121304368#0-AddedOffRampEdge 121304368#1 121304370"/>
    </vehicle>
    <vehicle id="flow_0.52" type="human" depart="7.71" departLane="4" departPos="0.00" departSpeed="30.00">
        <route edges="634155175 634155175-AddedOffRampEdge 19446657"/>
    </vehicle>
    <vehicle id="flow_0.53" type="human" depart="7.84" departLane="4" departPos="0.00" departSpeed="30.00">
        <route edges="634155175 634155175-AddedOffRampEdge 108162065#1 635078745-AddedOnRampEdge 635078745 635078551-AddedOnRampEdge 635078551 635078551-AddedOffRampEdge 124809170#1 124809170#2-AddedOnRampEdge 124809170#2 124809170#2-AddedOffRampEdge 277208914#1 277208914#2-AddedOnRampEdge 277208914#2 121304376 173718411 110861819 121304368#0 121304368#0-AddedOffRampEdge 121304368#1 121304370"/>
    </vehicle>
    <vehicle id="flow_0.54" type="human" depart="7.97" departLane="4" departPos="0.00" departSpeed="30.00">
        <route edges="634155175 634155175-AddedOffRampEdge 108162065#1 635078745-AddedOnRampEdge 635078745 635078551-AddedOnRampEdge 635078551 635078551-AddedOffRampEdge 124809170#1 124809170#2-AddedOnRampEdge 124809170#2 124809170#2-AddedOffRampEdge 277208914#1 277208914#2-AddedOnRampEdge 277208914#2 121304376 173718411 110861819 121304368#0 121304368#0-AddedOffRampEdge 121304368#1 121304370"/>
    </vehicle>
    <vehicle id="flow_0.55" type="human" depart="8.10" departLane="4" departPos="0.00" departSpeed="30.00">
        <route edges="634155175 634155175-AddedOffRampEdge 108162065#1 635078745-AddedOnRampEdge 635078745 635078551-AddedOnRampEdge 635078551 635078551-AddedOffRampEdge 19440938"/>
    </vehicle>
    <vehicle id="flow_0.56" type="human" depart="8.22" departLane="4" departPos="0.00" departSpeed="30.00">
        <route edges="634155175 634155175-AddedOffRampEdge 19446657"/>
    </vehicle>
    <vehicle id="flow_0.57" type="human" depart="8.35" departLane="4" departPos="0.00" departSpeed="30.00">
        <route edges="634155175 634155175-AddedOffRampEdge 108162065#1 635078745-AddedOnRampEdge 635078745 635078551-AddedOnRampEdge 635078551 635078551-AddedOffRampEdge 19440938"/>
    </vehicle>
    <vehicle id="flow_0.58" type="human" depart="8.48" departLane="4" departPos="0.00" departSpeed="30.00">
        <route edges="634155175 634155175-AddedOffRampEdge 108162065#1 635078745-AddedOnRampEdge 635078745 635078551-AddedOnRampEdge 635078551 635078551-AddedOffRampEdge 19440938"/>
    </vehicle>
    <vehicle id="flow_0.59" type="human" depart="8.61" departLane="4" departPos="0.00" departSpeed="30.00">
        <route edges="634155175 634155175-AddedOffRampEdge 108162065#1 635078745-AddedOnRampEdge 635078745 635078551-AddedOnRampEdge 635078551 635078551-AddedOffRampEdge 124809170#1 124809170#2-AddedOnRampEdge 124809170#2 124809170#2-AddedOffRampEdge 277208914#1 277208914#2-AddedOnRampEdge 277208914#2 121304376 173718411 110861819 121304368#0 121304368#0-AddedOffRampEdge 121304368#1 121304370"/>
    </vehicle>
    <vehicle id="flow_0.60" type="human" depart="8.74" departLane="4" departPos="0.00" departSpeed="30.00">
        <route edges="634155175 634155175-AddedOffRampEdge 108162065#1 635078745-AddedOnRampEdge 635078745 635078551-AddedOnRampEdge 635078551 635078551-AddedOffRampEdge 124809170#1 124809170#2-AddedOnRampEdge 124809170#2 124809170#2-AddedOffRampEdge 277208914#1 277208914#2-AddedOnRampEdge 277208914#2 121304376 173718411 110861819 121304368#0 121304368#0-AddedOffRampEdge 121304368#1 121304370"/>
    </vehicle>
    <vehicle id="flow_0.61" type="human" depart="8.87" departLane="4" departPos="0.00" departSpeed="30.00">
        <route edges="634155175 634155175-AddedOffRampEdge 108162065#1 635078745-AddedOnRampEdge 635078745 635078551-AddedOnRampEdge 635078551 635078551-AddedOffRampEdge 124809170#1 124809170#2-AddedOnRampEdge 124809170#2 124809170#2-AddedOffRampEdge 277208914#1 277208914#2-AddedOnRampEdge 277208914#2 121304376 173718411 110861819 121304368#0 121304368#0-AddedOffRampEdge 121304368#1 121304370"/>
    </vehicle>
    <vehicle id="flow_0.62" type="human" depart="9.00" departLane="4" departPos="0.00" departSpeed="30.00">
        <route edges="634155175 634155175-AddedOffRampEdge 108162065#1 635078745-AddedOnRampEdge 635078745 635078551-AddedOnRampEdge 635078551 635078551-AddedOffRampEdge 124809170#1 124809170#2-AddedOnRampEdge 124809170#2 124809170#2-AddedOffRampEdge 277208914#1 277208914#2-AddedOnRampEdge 277208914#2 121304376 173718411 110861819 121304368#0 121304368#0-AddedOffRampEdge 121304368#1 121304370"/>
    </vehicle>
    <vehicle id="flow_0.63" type="human" depart="9.13" departLane="4" departPos="0.00" departSpeed="30.00">