<?xml version="1.0" encoding="UTF-8"?>

<!-- generated on Thu Jul 25 13:27:19 2019 by Eclipse SUMO netedit Version 1.2.0
<configuration xmlns:xsi="http://www.w3.org/2001/XMLSchema-instance" xsi:noNamespaceSchemaLocation="http://sumo.dlr.de/xsd/netconvertConfiguration.xsd">

    <input>
        <sumo-net-file value="/Users/danielshin/Desktop/Network/NoI440Edit.net.xml"/>
    </input>

    <output>
        <output-file value="/Users/danielshin/Desktop/Network/NoI440Edit.net.xml"/>
    </output>

    <processing>
        <geometry.max-grade.fix value="false"/>
        <offset.disable-normalization value="true"/>
        <lefthand value="false"/>
    </processing>

    <junctions>
        <no-turnarounds value="true"/>
        <junctions.corner-detail value="5"/>
        <junctions.limit-turn-speed value="5.5"/>
        <rectangular-lane-cut value="false"/>
    </junctions>

    <pedestrian>
        <walkingareas value="false"/>
    </pedestrian>

</configuration>
-->

<net version="1.1" junctionCornerDetail="5" limitTurnSpeed="5.50" xmlns:xsi="http://www.w3.org/2001/XMLSchema-instance" xsi:noNamespaceSchemaLocation="http://sumo.dlr.de/xsd/net_file.xsd">

    <location netOffset="-520564.24,-3984036.45" convBoundary="540.57,0.00,17429.49,15684.89" origBoundary="-86.771408,35.976881,-86.578350,36.167690" projParameter="+proj=utm +zone=16 +ellps=WGS84 +datum=WGS84 +units=m +no_defs"/>

    <type id="highway.bridleway" priority="1" numLanes="1" speed="2.78" allow="pedestrian" oneway="1" width="2.00"/>
    <type id="highway.bus_guideway" priority="1" numLanes="1" speed="27.78" allow="bus" oneway="1"/>
    <type id="highway.cycleway" priority="1" numLanes="1" speed="8.33" allow="bicycle" oneway="0" width="1.00"/>
    <type id="highway.footway" priority="1" numLanes="1" speed="2.78" allow="pedestrian" oneway="1" width="2.00"/>
    <type id="highway.ford" priority="1" numLanes="1" speed="2.78" allow="army" oneway="0"/>
    <type id="highway.living_street" priority="3" numLanes="1" speed="2.78" disallow="tram rail_urban rail rail_electric ship" oneway="0"/>
    <type id="highway.motorway" priority="13" numLanes="2" speed="44.44" allow="private emergency authority army vip passenger hov taxi bus coach delivery truck trailer motorcycle evehicle custom1 custom2" oneway="1"/>
    <type id="highway.motorway_link" priority="12" numLanes="1" speed="22.22" allow="private emergency authority army vip passenger hov taxi bus coach delivery truck trailer motorcycle evehicle custom1 custom2" oneway="1"/>
    <type id="highway.path" priority="1" numLanes="1" speed="2.78" allow="bicycle pedestrian" oneway="1" width="2.00"/>
    <type id="highway.pedestrian" priority="1" numLanes="1" speed="2.78" allow="pedestrian" oneway="1" width="2.00"/>
    <type id="highway.primary" priority="9" numLanes="2" speed="27.78" disallow="tram rail_urban rail rail_electric ship" oneway="0"/>
    <type id="highway.primary_link" priority="8" numLanes="1" speed="22.22" disallow="tram rail_urban rail rail_electric ship" oneway="0"/>
    <type id="highway.raceway" priority="14" numLanes="2" speed="83.33" allow="vip" oneway="0"/>
    <type id="highway.residential" priority="4" numLanes="1" speed="13.89" disallow="tram rail_urban rail rail_electric ship" oneway="0"/>
    <type id="highway.secondary" priority="7" numLanes="2" speed="27.78" disallow="tram rail_urban rail rail_electric ship" oneway="0"/>
    <type id="highway.secondary_link" priority="6" numLanes="1" speed="22.22" disallow="tram rail_urban rail rail_electric ship" oneway="0"/>
    <type id="highway.service" priority="2" numLanes="1" speed="5.56" allow="delivery bicycle pedestrian" oneway="0"/>
    <type id="highway.stairs" priority="1" numLanes="1" speed="1.39" allow="pedestrian" oneway="1" width="2.00"/>
    <type id="highway.step" priority="1" numLanes="1" speed="1.39" allow="pedestrian" oneway="1" width="2.00"/>
    <type id="highway.steps" priority="1" numLanes="1" speed="1.39" allow="pedestrian" oneway="1" width="2.00"/>
    <type id="highway.tertiary" priority="6" numLanes="1" speed="22.22" disallow="tram rail_urban rail rail_electric ship" oneway="0"/>
    <type id="highway.tertiary_link" priority="5" numLanes="1" speed="22.22" disallow="tram rail_urban rail rail_electric ship" oneway="0"/>
    <type id="highway.track" priority="1" numLanes="1" speed="5.56" disallow="tram rail_urban rail rail_electric ship" oneway="0"/>
    <type id="highway.trunk" priority="11" numLanes="2" speed="27.78" disallow="tram rail_urban rail rail_electric bicycle pedestrian ship" oneway="0"/>
    <type id="highway.trunk_link" priority="10" numLanes="1" speed="22.22" disallow="tram rail_urban rail rail_electric bicycle pedestrian ship" oneway="0"/>
    <type id="highway.unclassified" priority="5" numLanes="1" speed="13.89" disallow="tram rail_urban rail rail_electric ship" oneway="0"/>
    <type id="highway.unsurfaced" priority="1" numLanes="1" speed="8.33" disallow="tram rail_urban rail rail_electric ship" oneway="0"/>
    <type id="railway.light_rail" priority="15" numLanes="1" speed="27.78" allow="rail_urban" oneway="1"/>
    <type id="railway.preserved" priority="15" numLanes="1" speed="27.78" allow="rail" oneway="1"/>
    <type id="railway.rail" priority="15" numLanes="1" speed="83.33" allow="rail rail_electric" oneway="1"/>
    <type id="railway.subway" priority="15" numLanes="1" speed="27.78" allow="rail_urban" oneway="1"/>
    <type id="railway.tram" priority="15" numLanes="1" speed="13.89" allow="tram" oneway="1"/>

    <edge id=":108162443#1-AddedOnRampNode_0" function="internal">
        <lane id=":108162443#1-AddedOnRampNode_0_0" index="0" allow="private emergency authority army vip passenger hov taxi bus coach delivery truck trailer motorcycle evehicle custom1 custom2" speed="21.64" length="8.00" shape="7695.62,7277.40 7700.77,7271.28"/>
        <lane id=":108162443#1-AddedOnRampNode_0_1" index="1" allow="private emergency authority army vip passenger hov taxi bus coach delivery truck trailer motorcycle evehicle custom1 custom2" speed="21.64" length="8.00" shape="7698.07,7279.46 7703.22,7273.34"/>
        <lane id=":108162443#1-AddedOnRampNode_0_2" index="2" allow="private emergency authority army vip passenger hov taxi bus coach delivery truck trailer motorcycle evehicle custom1 custom2" speed="21.64" length="8.00" shape="7700.52,7281.52 7705.67,7275.40"/>
        <lane id=":108162443#1-AddedOnRampNode_0_3" index="3" allow="private emergency authority army vip passenger hov taxi bus coach delivery truck trailer motorcycle evehicle custom1 custom2" speed="21.64" length="8.00" shape="7702.97,7283.58 7708.12,7277.46"/>
    </edge>
    <edge id=":121304377#1-AddedOnRampNode_0" function="internal">
        <lane id=":121304377#1-AddedOnRampNode_0_0" index="0" allow="private emergency authority army vip passenger hov taxi bus coach delivery truck trailer motorcycle evehicle custom1 custom2" speed="24.59" length="8.00" shape="4503.83,12044.44 4507.93,12037.56"/>
        <lane id=":121304377#1-AddedOnRampNode_0_1" index="1" allow="private emergency authority army vip passenger hov taxi bus coach delivery truck trailer motorcycle evehicle custom1 custom2" speed="24.59" length="8.00" shape="4506.58,12046.08 4510.68,12039.20"/>
        <lane id=":121304377#1-AddedOnRampNode_0_2" index="2" allow="private emergency authority army vip passenger hov taxi bus coach delivery truck trailer motorcycle evehicle custom1 custom2" speed="24.59" length="8.00" shape="4509.33,12047.72 4513.42,12040.84"/>
        <lane id=":121304377#1-AddedOnRampNode_0_3" index="3" allow="private emergency authority army vip passenger hov taxi bus coach delivery truck trailer motorcycle evehicle custom1 custom2" speed="24.59" length="8.00" shape="4512.08,12049.35 4516.17,12042.48"/>
    </edge>
    <edge id=":121304377#2-AddedOnRampNode_0" function="internal">
        <lane id=":121304377#2-AddedOnRampNode_0_0" index="0" allow="private emergency authority army vip passenger hov taxi bus coach delivery truck trailer motorcycle evehicle custom1 custom2" speed="24.59" length="8.00" shape="4684.23,11788.41 4689.37,11782.29"/>
        <lane id=":121304377#2-AddedOnRampNode_0_1" index="1" allow="private emergency authority army vip passenger hov taxi bus coach delivery truck trailer motorcycle evehicle custom1 custom2" speed="24.59" length="8.00" shape="4686.67,11790.47 4691.82,11784.35"/>
        <lane id=":121304377#2-AddedOnRampNode_0_2" index="2" allow="private emergency authority army vip passenger hov taxi bus coach delivery truck trailer motorcycle evehicle custom1 custom2" speed="24.59" length="8.00" shape="4689.12,11792.53 4694.27,11786.41"/>
        <lane id=":121304377#2-AddedOnRampNode_0_3" index="3" allow="private emergency authority army vip passenger hov taxi bus coach delivery truck trailer motorcycle evehicle custom1 custom2" speed="24.59" length="8.00" shape="4691.57,11794.59 4696.72,11788.47"/>
    </edge>
    <edge id=":124809167#1-AddedOffRampNode_0" function="internal">
        <lane id=":124809167#1-AddedOffRampNode_0_0" index="0" allow="private emergency authority army vip passenger hov taxi bus coach delivery truck trailer motorcycle evehicle custom1 custom2" speed="31.29" length="8.16" shape="7084.61,8181.72 7085.28,8179.30 7084.99,8177.43 7084.71,8175.56 7085.38,8173.14"/>
        <lane id=":124809167#1-AddedOffRampNode_0_1" index="1" allow="private emergency authority army vip passenger hov taxi bus coach delivery truck trailer motorcycle evehicle custom1 custom2" speed="31.29" length="8.16" shape="7084.61,8181.72 7088.23,8174.59"/>
        <lane id=":124809167#1-AddedOffRampNode_0_2" index="2" allow="private emergency authority army vip passenger hov taxi bus coach delivery truck trailer motorcycle evehicle custom1 custom2" speed="31.29" length="8.16" shape="7087.46,8183.17 7091.09,8176.04"/>
        <lane id=":124809167#1-AddedOffRampNode_0_3" index="3" allow="private emergency authority army vip passenger hov taxi bus coach delivery truck trailer motorcycle evehicle custom1 custom2" speed="31.29" length="8.16" shape="7090.31,8184.62 7093.94,8177.49"/>
        <lane id=":124809167#1-AddedOffRampNode_0_4" index="4" allow="private emergency authority army vip passenger hov taxi bus coach delivery truck trailer motorcycle evehicle custom1 custom2" speed="31.29" length="8.16" shape="7093.16,8186.08 7096.79,8178.94"/>
    </edge>
    <edge id=":124809167#1-AddedOnRampNode_0" function="internal">
        <lane id=":124809167#1-AddedOnRampNode_0_0" index="0" allow="private emergency authority army vip passenger hov taxi bus coach delivery truck trailer motorcycle evehicle custom1 custom2" speed="31.29" length="8.00" shape="6621.43,9103.48 6624.89,9096.27"/>
        <lane id=":124809167#1-AddedOnRampNode_0_1" index="1" allow="private emergency authority army vip passenger hov taxi bus coach delivery truck trailer motorcycle evehicle custom1 custom2" speed="31.29" length="8.00" shape="6624.31,9104.86 6627.78,9097.65"/>
        <lane id=":124809167#1-AddedOnRampNode_0_2" index="2" allow="private emergency authority army vip passenger hov taxi bus coach delivery truck trailer motorcycle evehicle custom1 custom2" speed="31.29" length="8.00" shape="6627.20,9106.25 6630.66,9099.04"/>
        <lane id=":124809167#1-AddedOnRampNode_0_3" index="3" allow="private emergency authority army vip passenger hov taxi bus coach delivery truck trailer motorcycle evehicle custom1 custom2" speed="31.29" length="8.00" shape="6630.08,9107.63 6633.55,9100.42"/>
    </edge>
    <edge id=":124809167#2-AddedOffRampNode_0" function="internal">
        <lane id=":124809167#2-AddedOffRampNode_0_0" index="0" allow="private emergency authority army vip passenger hov taxi bus coach delivery truck trailer motorcycle evehicle custom1 custom2" speed="31.29" length="8.16" shape="7327.18,7730.09 7328.09,7727.75 7328.00,7725.86 7327.91,7723.97 7328.83,7721.63"/>
        <lane id=":124809167#2-AddedOffRampNode_0_1" index="1" allow="private emergency authority army vip passenger hov taxi bus coach delivery truck trailer motorcycle evehicle custom1 custom2" speed="31.29" length="8.16" shape="7327.18,7730.09 7331.51,7723.36"/>
        <lane id=":124809167#2-AddedOffRampNode_0_2" index="2" allow="private emergency authority army vip passenger hov taxi bus coach delivery truck trailer motorcycle evehicle custom1 custom2" speed="31.29" length="8.16" shape="7329.86,7731.82 7334.20,7725.10"/>
        <lane id=":124809167#2-AddedOffRampNode_0_3" index="3" allow="private emergency authority army vip passenger hov taxi bus coach delivery truck trailer motorcycle evehicle custom1 custom2" speed="31.29" length="8.16" shape="7332.55,7733.56 7336.89,7726.84"/>
        <lane id=":124809167#2-AddedOffRampNode_0_4" index="4" allow="private emergency authority army vip passenger hov taxi bus coach delivery truck trailer motorcycle evehicle custom1 custom2" speed="31.29" length="8.16" shape="7335.24,7735.30 7339.58,7728.57"/>
    </edge>
    <edge id=":124809170#2-AddedOffRampNode_0" function="internal">
        <lane id=":124809170#2-AddedOffRampNode_0_0" index="0" allow="private emergency authority army vip passenger hov taxi bus coach delivery truck trailer motorcycle evehicle custom1 custom2" speed="31.29" length="8.16" shape="4745.38,11763.96 4744.12,11766.13 4743.91,11768.01 4743.71,11769.89 4742.44,11772.06"/>
        <lane id=":124809170#2-AddedOffRampNode_0_1" index="1" allow="private emergency authority army vip passenger hov taxi bus coach delivery truck trailer motorcycle evehicle custom1 custom2" speed="31.29" length="8.16" shape="4745.38,11763.96 4740.05,11769.92"/>
        <lane id=":124809170#2-AddedOffRampNode_0_2" index="2" allow="private emergency authority army vip passenger hov taxi bus coach delivery truck trailer motorcycle evehicle custom1 custom2" speed="31.29" length="8.16" shape="4743.00,11761.83 4737.67,11767.79"/>
        <lane id=":124809170#2-AddedOffRampNode_0_3" index="3" allow="private emergency authority army vip passenger hov taxi bus coach delivery truck trailer motorcycle evehicle custom1 custom2" speed="31.29" length="8.16" shape="4740.61,11759.69 4735.28,11765.66"/>
        <lane id=":124809170#2-AddedOffRampNode_0_4" index="4" allow="private emergency authority army vip passenger hov taxi bus coach delivery truck trailer motorcycle evehicle custom1 custom2" speed="31.29" length="8.16" shape="4738.23,11757.56 4732.89,11763.53"/>
    </edge>
    <edge id=":124809170#2-AddedOnRampNode_0" function="internal">
        <lane id=":124809170#2-AddedOnRampNode_0_0" index="0" allow="private emergency authority army vip passenger hov taxi bus coach delivery truck trailer motorcycle evehicle custom1 custom2" speed="31.29" length="8.00" shape="6279.57,9781.01 6275.16,9787.68"/>
        <lane id=":124809170#2-AddedOnRampNode_0_1" index="1" allow="private emergency authority army vip passenger hov taxi bus coach delivery truck trailer motorcycle evehicle custom1 custom2" speed="31.29" length="8.00" shape="6276.90,9779.25 6272.49,9785.92"/>
        <lane id=":124809170#2-AddedOnRampNode_0_2" index="2" allow="private emergency authority army vip passenger hov taxi bus coach delivery truck trailer motorcycle evehicle custom1 custom2" speed="31.29" length="8.00" shape="6274.24,9777.48 6269.82,9784.15"/>
        <lane id=":124809170#2-AddedOnRampNode_0_3" index="3" allow="private emergency authority army vip passenger hov taxi bus coach delivery truck trailer motorcycle evehicle custom1 custom2" speed="31.29" length="8.00" shape="6271.57,9775.72 6267.15,9782.39"/>
    </edge>
    <edge id=":1913884067_0" function="internal">
        <lane id=":1913884067_0_0" index="0" allow="private emergency authority army vip passenger hov taxi bus coach delivery truck trailer motorcycle evehicle custom1 custom2" speed="26.75" length="8.12" shape="7381.76,7645.94 7386.68,7639.48"/>
    </edge>
    <edge id=":1913884067_1" function="internal">
        <lane id=":1913884067_1_0" index="0" allow="private emergency authority army vip passenger hov taxi bus coach delivery truck trailer motorcycle evehicle custom1 custom2" speed="31.29" length="7.93" shape="7384.33,7647.85 7389.21,7641.46"/>
        <lane id=":1913884067_1_1" index="1" allow="private emergency authority army vip passenger hov taxi bus coach delivery truck trailer motorcycle evehicle custom1 custom2" speed="31.29" length="7.93" shape="7386.90,7649.76 7391.73,7643.42"/>
        <lane id=":1913884067_1_2" index="2" allow="private emergency authority army vip passenger hov taxi bus coach delivery truck trailer motorcycle evehicle custom1 custom2" speed="31.29" length="7.93" shape="7389.47,7651.67 7394.26,7645.39"/>
        <lane id=":1913884067_1_3" index="3" allow="private emergency authority army vip passenger hov taxi bus coach delivery truck trailer motorcycle evehicle custom1 custom2" speed="31.29" length="7.93" shape="7392.04,7653.57 7396.78,7647.36"/>
    </edge>
    <edge id=":202177450_0" function="internal">
        <lane id=":202177450_0_0" index="0" allow="private emergency authority army vip passenger hov taxi bus coach delivery truck trailer motorcycle evehicle custom1 custom2" speed="26.75" length="7.96" shape="7628.79,7351.81 7633.96,7345.76"/>
    </edge>
    <edge id=":202177450_1" function="internal">
        <lane id=":202177450_1_0" index="0" allow="private emergency authority army vip passenger hov taxi bus coach delivery truck trailer motorcycle evehicle custom1 custom2" speed="31.29" length="8.01" shape="7631.26,7353.91 7636.41,7347.82"/>
        <lane id=":202177450_1_1" index="1" allow="private emergency authority army vip passenger hov taxi bus coach delivery truck trailer motorcycle evehicle custom1 custom2" speed="31.29" length="8.01" shape="7633.70,7355.98 7638.86,7349.88"/>
        <lane id=":202177450_1_2" index="2" allow="private emergency authority army vip passenger hov taxi bus coach delivery truck trailer motorcycle evehicle custom1 custom2" speed="31.29" length="8.01" shape="7636.13,7358.06 7641.31,7351.94"/>
        <lane id=":202177450_1_3" index="3" allow="private emergency authority army vip passenger hov taxi bus coach delivery truck trailer motorcycle evehicle custom1 custom2" speed="31.29" length="8.01" shape="7638.57,7360.13 7643.76,7354.00"/>
    </edge>
    <edge id=":202177824_0" function="internal">
        <lane id=":202177824_0_0" index="0" allow="private emergency authority army vip passenger hov taxi bus coach delivery truck trailer motorcycle evehicle custom1 custom2" speed="26.75" length="7.94" shape="6633.27,9166.41 6629.65,9173.47"/>
        <lane id=":202177824_0_1" index="1" allow="private emergency authority army vip passenger hov taxi bus coach delivery truck trailer motorcycle evehicle custom1 custom2" speed="26.75" length="7.94" shape="6630.43,9164.94 6626.79,9172.01"/>
    </edge>
    <edge id=":202177824_2" function="internal">
        <lane id=":202177824_2_0" index="0" allow="private emergency authority army vip passenger hov taxi bus coach delivery truck trailer motorcycle evehicle custom1 custom2" speed="31.29" length="8.02" shape="6627.59,9163.46 6623.93,9170.56"/>
        <lane id=":202177824_2_1" index="1" allow="private emergency authority army vip passenger hov taxi bus coach delivery truck trailer motorcycle evehicle custom1 custom2" speed="31.29" length="8.02" shape="6624.75,9161.99 6621.08,9169.11"/>
        <lane id=":202177824_2_2" index="2" allow="private emergency authority army vip passenger hov taxi bus coach delivery truck trailer motorcycle evehicle custom1 custom2" speed="31.29" length="8.02" shape="6621.91,9160.51 6618.23,9167.66"/>
        <lane id=":202177824_2_3" index="3" allow="private emergency authority army vip passenger hov taxi bus coach delivery truck trailer motorcycle evehicle custom1 custom2" speed="31.29" length="8.02" shape="6619.07,9159.04 6615.37,9166.21"/>
    </edge>
    <edge id=":202185420_0" function="internal">
        <lane id=":202185420_0_0" index="0" allow="private emergency authority army vip passenger hov taxi bus coach delivery truck trailer motorcycle evehicle custom1 custom2" speed="26.75" length="7.81" shape="6575.13,9192.01 6578.73,9185.07"/>
    </edge>
    <edge id=":202185420_1" function="internal">
        <lane id=":202185420_1_0" index="0" allow="private emergency authority army vip passenger hov taxi bus coach delivery truck trailer motorcycle evehicle custom1 custom2" speed="31.29" length="7.99" shape="6578.12,9193.52 6581.61,9186.45"/>
        <lane id=":202185420_1_1" index="1" allow="private emergency authority army vip passenger hov taxi bus coach delivery truck trailer motorcycle evehicle custom1 custom2" speed="31.29" length="7.99" shape="6580.97,9194.97 6584.50,9187.84"/>
        <lane id=":202185420_1_2" index="2" allow="private emergency authority army vip passenger hov taxi bus coach delivery truck trailer motorcycle evehicle custom1 custom2" speed="31.29" length="7.99" shape="6583.83,9196.41 6587.38,9189.22"/>
        <lane id=":202185420_1_3" index="3" allow="private emergency authority army vip passenger hov taxi bus coach delivery truck trailer motorcycle evehicle custom1 custom2" speed="31.29" length="7.99" shape="6586.68,9197.86 6590.27,9190.60"/>
    </edge>
    <edge id=":202195332_0" function="internal">
        <lane id=":202195332_0_0" index="0" allow="private emergency authority army vip passenger hov taxi bus coach delivery truck trailer motorcycle evehicle custom1 custom2" speed="26.75" length="8.12" shape="7467.88,7600.10 7462.46,7606.14"/>
    </edge>
    <edge id=":202195332_1" function="internal">
        <lane id=":202195332_1_0" index="0" allow="private emergency authority army vip passenger hov taxi bus coach delivery truck trailer motorcycle evehicle custom1 custom2" speed="29.66" length="7.98" shape="7465.25,7597.90 7460.04,7604.05"/>
        <lane id=":202195332_1_1" index="1" allow="private emergency authority army vip passenger hov taxi bus coach delivery truck trailer motorcycle evehicle custom1 custom2" speed="29.66" length="7.98" shape="7462.79,7595.85 7457.61,7601.96"/>
        <lane id=":202195332_1_2" index="2" allow="private emergency authority army vip passenger hov taxi bus coach delivery truck trailer motorcycle evehicle custom1 custom2" speed="29.66" length="7.98" shape="7460.33,7593.80 7455.19,7599.87"/>
        <lane id=":202195332_1_3" index="3" allow="private emergency authority army vip passenger hov taxi bus coach delivery truck trailer motorcycle evehicle custom1 custom2" speed="29.66" length="7.98" shape="7457.87,7591.75 7452.77,7597.78"/>
    </edge>
    <edge id=":202196805_0" function="internal">
        <lane id=":202196805_0_0" index="0" allow="private emergency authority army vip passenger hov taxi bus coach delivery truck trailer motorcycle evehicle custom1 custom2" speed="26.75" length="6.83" shape="6303.85,9681.88 6304.98,9680.20 6305.72,9679.03 6306.41,9677.82 6307.35,9676.02"/>
    </edge>
    <edge id=":202196805_1" function="internal">
        <lane id=":202196805_1_0" index="0" allow="private emergency authority army vip passenger hov taxi bus coach delivery truck trailer motorcycle evehicle custom1 custom2" speed="31.29" length="7.74" shape="6306.51,9683.67 6310.38,9677.60"/>
        <lane id=":202196805_1_1" index="1" allow="private emergency authority army vip passenger hov taxi bus coach delivery truck trailer motorcycle evehicle custom1 custom2" speed="31.29" length="7.74" shape="6309.16,9685.45 6313.23,9679.09"/>
        <lane id=":202196805_1_2" index="2" allow="private emergency authority army vip passenger hov taxi bus coach delivery truck trailer motorcycle evehicle custom1 custom2" speed="31.29" length="7.74" shape="6311.81,9687.24 6316.07,9680.57"/>
        <lane id=":202196805_1_3" index="3" allow="private emergency authority army vip passenger hov taxi bus coach delivery truck trailer motorcycle evehicle custom1 custom2" speed="31.29" length="7.74" shape="6314.47,9689.03 6318.92,9682.05"/>
    </edge>
    <edge id=":202206660_0" function="internal">
        <lane id=":202206660_0_0" index="0" allow="private emergency authority army vip passenger hov taxi bus coach delivery truck trailer motorcycle evehicle custom1 custom2" speed="26.75" length="7.37" shape="4682.67,11841.90 4678.20,11847.77"/>
    </edge>
    <edge id=":202206660_1" function="internal">
        <lane id=":202206660_1_0" index="0" allow="private emergency authority army vip passenger hov taxi bus coach delivery truck trailer motorcycle evehicle custom1 custom2" speed="31.29" length="7.93" shape="4680.19,11839.88 4675.48,11845.84"/>
        <lane id=":202206660_1_1" index="1" allow="private emergency authority army vip passenger hov taxi bus coach delivery truck trailer motorcycle evehicle custom1 custom2" speed="31.29" length="7.93" shape="4677.72,11837.85 4672.86,11843.98"/>
        <lane id=":202206660_1_2" index="2" allow="private emergency authority army vip passenger hov taxi bus coach delivery truck trailer motorcycle evehicle custom1 custom2" speed="31.29" length="7.93" shape="4675.24,11835.82 4670.25,11842.13"/>
        <lane id=":202206660_1_3" index="3" allow="private emergency authority army vip passenger hov taxi bus coach delivery truck trailer motorcycle evehicle custom1 custom2" speed="31.29" length="7.93" shape="4672.77,11833.79 4667.64,11840.28"/>
    </edge>
    <edge id=":202214693_0" function="internal">
        <lane id=":202214693_0_0" index="0" allow="private emergency authority army vip passenger hov taxi bus coach delivery truck trailer motorcycle evehicle custom1 custom2" speed="26.75" length="7.94" shape="7127.12,8091.12 7130.69,8084.02"/>
    </edge>
    <edge id=":202214693_1" function="internal">
        <lane id=":202214693_1_0" index="0" allow="private emergency authority army vip passenger hov taxi bus coach delivery truck trailer motorcycle evehicle custom1 custom2" speed="31.29" length="8.01" shape="7129.98,8092.57 7133.59,8085.46"/>
        <lane id=":202214693_1_1" index="1" allow="private emergency authority army vip passenger hov taxi bus coach delivery truck trailer motorcycle evehicle custom1 custom2" speed="31.29" length="8.01" shape="7132.83,8094.02 7136.45,8086.89"/>
        <lane id=":202214693_1_2" index="2" allow="private emergency authority army vip passenger hov taxi bus coach delivery truck trailer motorcycle evehicle custom1 custom2" speed="31.29" length="8.01" shape="7135.68,8095.47 7139.32,8088.32"/>
        <lane id=":202214693_1_3" index="3" allow="private emergency authority army vip passenger hov taxi bus coach delivery truck trailer motorcycle evehicle custom1 custom2" speed="31.29" length="8.01" shape="7138.53,8096.92 7142.18,8089.74"/>
    </edge>
    <edge id=":202229638_0" function="internal">
        <lane id=":202229638_0_0" index="0" allow="private emergency authority army vip passenger hov taxi bus coach delivery truck trailer motorcycle evehicle custom1 custom2" speed="26.75" length="8.22" shape="7651.22,7380.72 7649.66,7382.58 7648.63,7383.90 7647.68,7385.28 7646.37,7387.34"/>
    </edge>
    <edge id=":202229638_1" function="internal">
        <lane id=":202229638_1_0" index="0" allow="private emergency authority army vip passenger hov taxi bus coach delivery truck trailer motorcycle evehicle custom1 custom2" speed="29.66" length="8.24" shape="7648.78,7378.65 7643.45,7384.94"/>
        <lane id=":202229638_1_1" index="1" allow="private emergency authority army vip passenger hov taxi bus coach delivery truck trailer motorcycle evehicle custom1 custom2" speed="29.66" length="8.24" shape="7646.34,7376.58 7641.01,7382.87"/>
        <lane id=":202229638_1_2" index="2" allow="private emergency authority army vip passenger hov taxi bus coach delivery truck trailer motorcycle evehicle custom1 custom2" speed="29.66" length="8.24" shape="7643.90,7374.51 7638.57,7380.80"/>
        <lane id=":202229638_1_3" index="3" allow="private emergency authority army vip passenger hov taxi bus coach delivery truck trailer motorcycle evehicle custom1 custom2" speed="29.66" length="8.24" shape="7641.46,7372.45 7636.13,7378.73"/>
    </edge>
    <edge id=":202232173_0" function="internal">
        <lane id=":202232173_0_0" index="0" allow="private emergency authority army vip passenger hov taxi bus coach delivery truck trailer motorcycle evehicle custom1 custom2" speed="26.75" length="8.20" shape="6337.59,9699.21 6333.01,9706.00"/>
    </edge>
    <edge id=":202232173_1" function="internal">
        <lane id=":202232173_1_0" index="0" allow="private emergency authority army vip passenger hov taxi bus coach delivery truck trailer motorcycle evehicle custom1 custom2" speed="31.29" length="7.93" shape="6334.69,9697.42 6330.34,9704.23"/>
        <lane id=":202232173_1_1" index="1" allow="private emergency authority army vip passenger hov taxi bus coach delivery truck trailer motorcycle evehicle custom1 custom2" speed="31.29" length="7.93" shape="6331.97,9695.74 6327.67,9702.47"/>
        <lane id=":202232173_1_2" index="2" allow="private emergency authority army vip passenger hov taxi bus coach delivery truck trailer motorcycle evehicle custom1 custom2" speed="31.29" length="7.93" shape="6329.24,9694.06 6325.00,9700.71"/>
        <lane id=":202232173_1_3" index="3" allow="private emergency authority army vip passenger hov taxi bus coach delivery truck trailer motorcycle evehicle custom1 custom2" speed="31.29" length="7.93" shape="6326.52,9692.38 6322.33,9698.94"/>
    </edge>
    <edge id=":202233199_0" function="internal">
        <lane id=":202233199_0_0" index="0" allow="private emergency authority army vip passenger hov taxi bus coach delivery truck trailer motorcycle evehicle custom1 custom2" speed="26.75" length="7.45" shape="7274.85,7886.05 7273.65,7887.91 7272.87,7889.21 7272.16,7890.54 7271.16,7892.52"/>
    </edge>
    <edge id=":202233199_1" function="internal">