<?xml version="1.0" encoding="UTF-8"?>

<!-- generated on Fri Jul 26 12:53:05 2019 by Eclipse SUMO netedit Version 1.2.0
<configuration xmlns:xsi="http://www.w3.org/2001/XMLSchema-instance" xsi:noNamespaceSchemaLocation="http://sumo.dlr.de/xsd/netconvertConfiguration.xsd">

    <input>
        <sumo-net-file value="/Users/danielshin/Desktop/Network/59-64_full.net.xml"/>
    </input>

    <output>
        <output-file value="/Users/danielshin/Desktop/Network/59-64_edit.net.xml"/>
    </output>

    <processing>
        <geometry.max-grade.fix value="false"/>
        <offset.disable-normalization value="true"/>
        <lefthand value="false"/>
    </processing>

    <junctions>
        <no-turnarounds value="true"/>
        <junctions.corner-detail value="5"/>
        <junctions.limit-turn-speed value="5.5"/>
        <rectangular-lane-cut value="false"/>
    </junctions>

    <pedestrian>
        <walkingareas value="false"/>
    </pedestrian>

</configuration>
-->

<net version="1.1" junctionCornerDetail="5" limitTurnSpeed="5.50" xmlns:xsi="http://www.w3.org/2001/XMLSchema-instance" xsi:noNamespaceSchemaLocation="http://sumo.dlr.de/xsd/net_file.xsd">

    <location netOffset="-528844.53,-3979173.26" convBoundary="0.00,0.00,9492.18,13030.26" origBoundary="-86.679660,35.956269,-86.562904,36.073999" projParameter="+proj=utm +zone=16 +ellps=WGS84 +datum=WGS84 +units=m +no_defs"/>

    <type id="highway.bridleway" priority="1" numLanes="1" speed="2.78" allow="pedestrian" oneway="1" width="2.00"/>
    <type id="highway.bus_guideway" priority="1" numLanes="1" speed="27.78" allow="bus" oneway="1"/>
    <type id="highway.cycleway" priority="1" numLanes="1" speed="8.33" allow="bicycle" oneway="0" width="1.00"/>
    <type id="highway.footway" priority="1" numLanes="1" speed="2.78" allow="pedestrian" oneway="1" width="2.00"/>
    <type id="highway.ford" priority="1" numLanes="1" speed="2.78" allow="army" oneway="0"/>
    <type id="highway.living_street" priority="3" numLanes="1" speed="2.78" disallow="tram rail_urban rail rail_electric ship" oneway="0"/>
    <type id="highway.motorway" priority="13" numLanes="2" speed="44.44" allow="private emergency authority army vip passenger hov taxi bus coach delivery truck trailer motorcycle evehicle custom1 custom2" oneway="1"/>
    <type id="highway.motorway_link" priority="12" numLanes="1" speed="22.22" allow="private emergency authority army vip passenger hov taxi bus coach delivery truck trailer motorcycle evehicle custom1 custom2" oneway="1"/>
    <type id="highway.path" priority="1" numLanes="1" speed="2.78" allow="bicycle pedestrian" oneway="1" width="2.00"/>
    <type id="highway.pedestrian" priority="1" numLanes="1" speed="2.78" allow="pedestrian" oneway="1" width="2.00"/>
    <type id="highway.primary" priority="9" numLanes="2" speed="27.78" disallow="tram rail_urban rail rail_electric ship" oneway="0"/>
    <type id="highway.primary_link" priority="8" numLanes="1" speed="22.22" disallow="tram rail_urban rail rail_electric ship" oneway="0"/>
    <type id="highway.raceway" priority="14" numLanes="2" speed="83.33" allow="vip" oneway="0"/>
    <type id="highway.residential" priority="4" numLanes="1" speed="13.89" disallow="tram rail_urban rail rail_electric ship" oneway="0"/>
    <type id="highway.secondary" priority="7" numLanes="2" speed="27.78" disallow="tram rail_urban rail rail_electric ship" oneway="0"/>
    <type id="highway.secondary_link" priority="6" numLanes="1" speed="22.22" disallow="tram rail_urban rail rail_electric ship" oneway="0"/>
    <type id="highway.service" priority="2" numLanes="1" speed="5.56" allow="delivery bicycle pedestrian" oneway="0"/>
    <type id="highway.stairs" priority="1" numLanes="1" speed="1.39" allow="pedestrian" oneway="1" width="2.00"/>
    <type id="highway.step" priority="1" numLanes="1" speed="1.39" allow="pedestrian" oneway="1" width="2.00"/>
    <type id="highway.steps" priority="1" numLanes="1" speed="1.39" allow="pedestrian" oneway="1" width="2.00"/>
    <type id="highway.tertiary" priority="6" numLanes="1" speed="22.22" disallow="tram rail_urban rail rail_electric ship" oneway="0"/>
    <type id="highway.tertiary_link" priority="5" numLanes="1" speed="22.22" disallow="tram rail_urban rail rail_electric ship" oneway="0"/>
    <type id="highway.track" priority="1" numLanes="1" speed="5.56" disallow="tram rail_urban rail rail_electric ship" oneway="0"/>
    <type id="highway.trunk" priority="11" numLanes="2" speed="27.78" disallow="tram rail_urban rail rail_electric bicycle pedestrian ship" oneway="0"/>
    <type id="highway.trunk_link" priority="10" numLanes="1" speed="22.22" disallow="tram rail_urban rail rail_electric bicycle pedestrian ship" oneway="0"/>
    <type id="highway.unclassified" priority="5" numLanes="1" speed="13.89" disallow="tram rail_urban rail rail_electric ship" oneway="0"/>
    <type id="highway.unsurfaced" priority="1" numLanes="1" speed="8.33" disallow="tram rail_urban rail rail_electric ship" oneway="0"/>
    <type id="railway.light_rail" priority="15" numLanes="1" speed="27.78" allow="rail_urban" oneway="1"/>
    <type id="railway.preserved" priority="15" numLanes="1" speed="27.78" allow="rail" oneway="1"/>
    <type id="railway.rail" priority="15" numLanes="1" speed="83.33" allow="rail rail_electric" oneway="1"/>
    <type id="railway.subway" priority="15" numLanes="1" speed="27.78" allow="rail_urban" oneway="1"/>
    <type id="railway.tram" priority="15" numLanes="1" speed="13.89" allow="tram" oneway="1"/>

    <edge id=":108161914#1-AddedOffRampNode_0" function="internal">
        <lane id=":108161914#1-AddedOffRampNode_0_0" index="0" allow="private emergency authority army vip passenger hov taxi bus coach delivery truck trailer motorcycle evehicle custom1 custom2" speed="31.29" length="8.16" shape="2661.45,9276.30 2663.16,9274.46 2663.77,9272.67 2664.37,9270.88 2666.08,9269.04"/>
        <lane id=":108161914#1-AddedOffRampNode_0_1" index="1" allow="private emergency authority army vip passenger hov taxi bus coach delivery truck trailer motorcycle evehicle custom1 custom2" speed="31.29" length="8.16" shape="2661.45,9276.30 2667.95,9271.64"/>
        <lane id=":108161914#1-AddedOffRampNode_0_2" index="2" allow="private emergency authority army vip passenger hov taxi bus coach delivery truck trailer motorcycle evehicle custom1 custom2" speed="31.29" length="8.16" shape="2663.31,9278.91 2669.81,9274.24"/>
        <lane id=":108161914#1-AddedOffRampNode_0_3" index="3" allow="private emergency authority army vip passenger hov taxi bus coach delivery truck trailer motorcycle evehicle custom1 custom2" speed="31.29" length="8.16" shape="2665.17,9281.51 2671.67,9276.85"/>
        <lane id=":108161914#1-AddedOffRampNode_0_4" index="4" allow="private emergency authority army vip passenger hov taxi bus coach delivery truck trailer motorcycle evehicle custom1 custom2" speed="31.29" length="8.16" shape="2667.03,9284.11 2673.54,9279.45"/>
    </edge>
    <edge id=":108161914#1-AddedOnRampNode_0" function="internal">
        <lane id=":108161914#1-AddedOnRampNode_0_0" index="0" allow="private emergency authority army vip passenger hov taxi bus coach delivery truck trailer motorcycle evehicle custom1 custom2" speed="31.29" length="8.00" shape="2313.35,9524.00 2319.88,9519.38"/>
        <lane id=":108161914#1-AddedOnRampNode_0_1" index="1" allow="private emergency authority army vip passenger hov taxi bus coach delivery truck trailer motorcycle evehicle custom1 custom2" speed="31.29" length="8.00" shape="2315.20,9526.61 2321.73,9521.99"/>
        <lane id=":108161914#1-AddedOnRampNode_0_2" index="2" allow="private emergency authority army vip passenger hov taxi bus coach delivery truck trailer motorcycle evehicle custom1 custom2" speed="31.29" length="8.00" shape="2317.05,9529.22 2323.58,9524.60"/>
        <lane id=":108161914#1-AddedOnRampNode_0_3" index="3" allow="private emergency authority army vip passenger hov taxi bus coach delivery truck trailer motorcycle evehicle custom1 custom2" speed="31.29" length="8.00" shape="2318.90,9531.83 2325.43,9527.21"/>
    </edge>
    <edge id=":108161914#3-AddedOffRampNode_0" function="internal">
        <lane id=":108161914#3-AddedOffRampNode_0_0" index="0" allow="private emergency authority army vip passenger hov taxi bus coach delivery truck trailer motorcycle evehicle custom1 custom2" speed="31.29" length="8.16" shape="4949.51,6855.33 4950.80,6853.18 4951.03,6851.30 4951.26,6849.42 4952.55,6847.27"/>
        <lane id=":108161914#3-AddedOffRampNode_0_1" index="1" allow="private emergency authority army vip passenger hov taxi bus coach delivery truck trailer motorcycle evehicle custom1 custom2" speed="31.29" length="8.16" shape="4949.51,6855.33 4954.91,6849.43"/>
        <lane id=":108161914#3-AddedOffRampNode_0_2" index="2" allow="private emergency authority army vip passenger hov taxi bus coach delivery truck trailer motorcycle evehicle custom1 custom2" speed="31.29" length="8.16" shape="4951.87,6857.49 4957.27,6851.59"/>
        <lane id=":108161914#3-AddedOffRampNode_0_3" index="3" allow="private emergency authority army vip passenger hov taxi bus coach delivery truck trailer motorcycle evehicle custom1 custom2" speed="31.29" length="8.16" shape="4954.23,6859.65 4959.63,6853.75"/>
        <lane id=":108161914#3-AddedOffRampNode_0_4" index="4" allow="private emergency authority army vip passenger hov taxi bus coach delivery truck trailer motorcycle evehicle custom1 custom2" speed="31.29" length="8.16" shape="4956.59,6861.81 4961.99,6855.91"/>
    </edge>
    <edge id=":108161914#3-AddedOnRampNode_0" function="internal">
        <lane id=":108161914#3-AddedOnRampNode_0_0" index="0" allow="private emergency authority army vip passenger hov taxi bus coach delivery truck trailer motorcycle evehicle custom1 custom2" speed="31.29" length="8.00" shape="3299.73,8662.02 3305.11,8656.09"/>
        <lane id=":108161914#3-AddedOnRampNode_0_1" index="1" allow="private emergency authority army vip passenger hov taxi bus coach delivery truck trailer motorcycle evehicle custom1 custom2" speed="31.29" length="8.00" shape="3302.11,8664.17 3307.48,8658.24"/>
        <lane id=":108161914#3-AddedOnRampNode_0_2" index="2" allow="private emergency authority army vip passenger hov taxi bus coach delivery truck trailer motorcycle evehicle custom1 custom2" speed="31.29" length="8.00" shape="3304.48,8666.31 3309.85,8660.39"/>
        <lane id=":108161914#3-AddedOnRampNode_0_3" index="3" allow="private emergency authority army vip passenger hov taxi bus coach delivery truck trailer motorcycle evehicle custom1 custom2" speed="31.29" length="8.00" shape="3306.85,8668.46 3312.22,8662.53"/>
    </edge>
    <edge id=":108161914#5-AddedOffRampNode_0" function="internal">
        <lane id=":108161914#5-AddedOffRampNode_0_0" index="0" allow="private emergency authority army vip passenger hov taxi bus coach delivery truck trailer motorcycle evehicle custom1 custom2" speed="31.29" length="8.16" shape="7491.30,4320.49 7492.94,4318.59 7493.48,4316.78 7494.02,4314.96 7495.66,4313.06"/>
        <lane id=":108161914#5-AddedOffRampNode_0_1" index="1" allow="private emergency authority army vip passenger hov taxi bus coach delivery truck trailer motorcycle evehicle custom1 custom2" speed="31.29" length="8.16" shape="7491.30,4320.49 7497.62,4315.59"/>
        <lane id=":108161914#5-AddedOffRampNode_0_2" index="2" allow="private emergency authority army vip passenger hov taxi bus coach delivery truck trailer motorcycle evehicle custom1 custom2" speed="31.29" length="8.16" shape="7493.27,4323.02 7499.58,4318.11"/>
        <lane id=":108161914#5-AddedOffRampNode_0_3" index="3" allow="private emergency authority army vip passenger hov taxi bus coach delivery truck trailer motorcycle evehicle custom1 custom2" speed="31.29" length="8.16" shape="7495.23,4325.55 7501.55,4320.64"/>
        <lane id=":108161914#5-AddedOffRampNode_0_4" index="4" allow="private emergency authority army vip passenger hov taxi bus coach delivery truck trailer motorcycle evehicle custom1 custom2" speed="31.29" length="8.16" shape="7497.19,4328.08 7503.51,4323.17"/>
    </edge>
    <edge id=":108161914#5-AddedOnRampNode_0" function="internal">
        <lane id=":108161914#5-AddedOnRampNode_0_0" index="0" allow="private emergency authority army vip passenger hov taxi bus coach delivery truck trailer motorcycle evehicle custom1 custom2" speed="31.29" length="8.00" shape="5832.51,5888.21 5837.91,5882.31"/>
        <lane id=":108161914#5-AddedOnRampNode_0_1" index="1" allow="private emergency authority army vip passenger hov taxi bus coach delivery truck trailer motorcycle evehicle custom1 custom2" speed="31.29" length="8.00" shape="5834.87,5890.37 5840.27,5884.47"/>
        <lane id=":108161914#5-AddedOnRampNode_0_2" index="2" allow="private emergency authority army vip passenger hov taxi bus coach delivery truck trailer motorcycle evehicle custom1 custom2" speed="31.29" length="8.00" shape="5837.23,5892.53 5842.63,5886.63"/>
        <lane id=":108161914#5-AddedOnRampNode_0_3" index="3" allow="private emergency authority army vip passenger hov taxi bus coach delivery truck trailer motorcycle evehicle custom1 custom2" speed="31.29" length="8.00" shape="5839.59,5894.69 5844.99,5888.79"/>
    </edge>
    <edge id=":108162303-AddedOffRampNode_0" function="internal">
        <lane id=":108162303-AddedOffRampNode_0_0" index="0" allow="private emergency authority army vip passenger hov taxi bus coach delivery truck trailer motorcycle evehicle custom1 custom2" speed="31.29" length="8.16" shape="1588.13,10040.25 1589.85,10038.42 1590.46,10036.63 1591.08,10034.85 1592.80,10033.01"/>
        <lane id=":108162303-AddedOffRampNode_0_1" index="1" allow="private emergency authority army vip passenger hov taxi bus coach delivery truck trailer motorcycle evehicle custom1 custom2" speed="31.29" length="8.16" shape="1588.13,10040.25 1594.65,10035.62"/>
        <lane id=":108162303-AddedOffRampNode_0_2" index="2" allow="private emergency authority army vip passenger hov taxi bus coach delivery truck trailer motorcycle evehicle custom1 custom2" speed="31.29" length="8.16" shape="1589.98,10042.86 1596.50,10038.23"/>
        <lane id=":108162303-AddedOffRampNode_0_3" index="3" allow="private emergency authority army vip passenger hov taxi bus coach delivery truck trailer motorcycle evehicle custom1 custom2" speed="31.29" length="8.16" shape="1591.83,10045.47 1598.36,10040.84"/>
        <lane id=":108162303-AddedOffRampNode_0_4" index="4" allow="private emergency authority army vip passenger hov taxi bus coach delivery truck trailer motorcycle evehicle custom1 custom2" speed="31.29" length="8.16" shape="1593.68,10048.08 1600.21,10043.45"/>
    </edge>
    <edge id=":1241354682_0" function="internal">
        <lane id=":1241354682_0_0" index="0" allow="private emergency authority army vip passenger hov taxi bus coach delivery truck trailer motorcycle evehicle custom1 custom2" speed="26.75" length="8.14" shape="3230.03,8733.77 3231.79,8732.13 3232.98,8730.97 3234.12,8729.77 3235.74,8727.99"/>
    </edge>
    <edge id=":1241354682_1" function="internal">
        <lane id=":1241354682_1_0" index="0" allow="private emergency authority army vip passenger hov taxi bus coach delivery truck trailer motorcycle evehicle custom1 custom2" speed="31.29" length="8.15" shape="3232.65,8736.16 3238.11,8730.13"/>
        <lane id=":1241354682_1_1" index="1" allow="private emergency authority army vip passenger hov taxi bus coach delivery truck trailer motorcycle evehicle custom1 custom2" speed="31.29" length="8.15" shape="3235.01,8738.32 3240.49,8732.28"/>
        <lane id=":1241354682_1_2" index="2" allow="private emergency authority army vip passenger hov taxi bus coach delivery truck trailer motorcycle evehicle custom1 custom2" speed="31.29" length="8.15" shape="3237.38,8740.47 3242.86,8734.43"/>
        <lane id=":1241354682_1_3" index="3" allow="private emergency authority army vip passenger hov taxi bus coach delivery truck trailer motorcycle evehicle custom1 custom2" speed="31.29" length="8.15" shape="3239.75,8742.62 3245.23,8736.57"/>
    </edge>
    <edge id=":1241356094_0" function="internal">
        <lane id=":1241356094_0_0" index="0" allow="private emergency authority army vip passenger hov taxi bus coach delivery truck trailer motorcycle evehicle custom1 custom2" speed="26.75" length="8.03" shape="8021.11,3905.25 8027.57,3900.47"/>
    </edge>
    <edge id=":1241356094_1" function="internal">
        <lane id=":1241356094_1_0" index="0" allow="private emergency authority army vip passenger hov taxi bus coach delivery truck trailer motorcycle evehicle custom1 custom2" speed="31.29" length="8.00" shape="8023.19,3907.92 8029.52,3903.01"/>
        <lane id=":1241356094_1_1" index="1" allow="private emergency authority army vip passenger hov taxi bus coach delivery truck trailer motorcycle evehicle custom1 custom2" speed="31.29" length="8.00" shape="8025.16,3910.45 8031.48,3905.54"/>
        <lane id=":1241356094_1_2" index="2" allow="private emergency authority army vip passenger hov taxi bus coach delivery truck trailer motorcycle evehicle custom1 custom2" speed="31.29" length="8.00" shape="8027.12,3912.97 8033.43,3908.07"/>
        <lane id=":1241356094_1_3" index="3" allow="private emergency authority army vip passenger hov taxi bus coach delivery truck trailer motorcycle evehicle custom1 custom2" speed="31.29" length="8.00" shape="8029.09,3915.50 8035.39,3910.61"/>
    </edge>
    <edge id=":1241356401_0" function="internal">
        <lane id=":1241356401_0_0" index="0" allow="private emergency authority army vip passenger hov taxi bus coach delivery truck trailer motorcycle evehicle custom1 custom2" speed="26.75" length="7.61" shape="7568.48,4256.52 7574.37,4251.69"/>
    </edge>
    <edge id=":1241356401_1" function="internal">
        <lane id=":1241356401_1_0" index="0" allow="private emergency authority army vip passenger hov taxi bus coach delivery truck trailer motorcycle evehicle custom1 custom2" speed="31.29" length="8.03" shape="7570.44,4259.05 7576.60,4254.28"/>
        <lane id=":1241356401_1_1" index="1" allow="private emergency authority army vip passenger hov taxi bus coach delivery truck trailer motorcycle evehicle custom1 custom2" speed="31.29" length="8.03" shape="7572.40,4261.57 7578.69,4256.71"/>
        <lane id=":1241356401_1_2" index="2" allow="private emergency authority army vip passenger hov taxi bus coach delivery truck trailer motorcycle evehicle custom1 custom2" speed="31.29" length="8.03" shape="7574.37,4264.10 7580.78,4259.14"/>
        <lane id=":1241356401_1_3" index="3" allow="private emergency authority army vip passenger hov taxi bus coach delivery truck trailer motorcycle evehicle custom1 custom2" speed="31.29" length="8.03" shape="7576.33,4266.63 7582.87,4261.57"/>
    </edge>
    <edge id=":1913883940_0" function="internal">
        <lane id=":1913883940_0_0" index="0" allow="private emergency authority army vip passenger hov taxi bus coach delivery truck trailer motorcycle evehicle custom1 custom2" speed="26.75" length="7.98" shape="5762.79,5959.98 5768.24,5954.15"/>
    </edge>
    <edge id=":1913883940_1" function="internal">
        <lane id=":1913883940_1_0" index="0" allow="private emergency authority army vip passenger hov taxi bus coach delivery truck trailer motorcycle evehicle custom1 custom2" speed="31.29" length="8.00" shape="5765.22,5962.20 5770.61,5956.30"/>
        <lane id=":1913883940_1_1" index="1" allow="private emergency authority army vip passenger hov taxi bus coach delivery truck trailer motorcycle evehicle custom1 custom2" speed="31.29" length="8.00" shape="5767.58,5964.36 5772.98,5958.45"/>
        <lane id=":1913883940_1_2" index="2" allow="private emergency authority army vip passenger hov taxi bus coach delivery truck trailer motorcycle evehicle custom1 custom2" speed="31.29" length="8.00" shape="5769.95,5966.52 5775.34,5960.61"/>
        <lane id=":1913883940_1_3" index="3" allow="private emergency authority army vip passenger hov taxi bus coach delivery truck trailer motorcycle evehicle custom1 custom2" speed="31.29" length="8.00" shape="5772.31,5968.68 5777.71,5962.76"/>
    </edge>
    <edge id=":1913883944_0" function="internal">
        <lane id=":1913883944_0_0" index="0" allow="private emergency authority army vip passenger hov taxi bus coach delivery truck trailer motorcycle evehicle custom1 custom2" speed="26.75" length="7.83" shape="5612.38,6179.41 5607.17,6185.25"/>
    </edge>
    <edge id=":1913883944_1" function="internal">
        <lane id=":1913883944_1_0" index="0" allow="private emergency authority army vip passenger hov taxi bus coach delivery truck trailer motorcycle evehicle custom1 custom2" speed="31.29" length="8.02" shape="5610.01,6177.25 5604.69,6183.09"/>
        <lane id=":1913883944_1_1" index="1" allow="private emergency authority army vip passenger hov taxi bus coach delivery truck trailer motorcycle evehicle custom1 custom2" speed="31.29" length="8.02" shape="5607.65,6175.09 5602.28,6180.99"/>
        <lane id=":1913883944_1_2" index="2" allow="private emergency authority army vip passenger hov taxi bus coach delivery truck trailer motorcycle evehicle custom1 custom2" speed="31.29" length="8.02" shape="5605.29,6172.93 5599.87,6178.89"/>
        <lane id=":1913883944_1_3" index="3" allow="private emergency authority army vip passenger hov taxi bus coach delivery truck trailer motorcycle evehicle custom1 custom2" speed="31.29" length="8.02" shape="5602.93,6170.77 5597.45,6176.79"/>
    </edge>
    <edge id=":1913884051_0" function="internal">
        <lane id=":1913884051_0_0" index="0" allow="private emergency authority army vip passenger hov taxi bus coach delivery truck trailer motorcycle evehicle custom1 custom2" speed="26.75" length="10.23" shape="4962.76,6879.56 4960.28,6880.97 4957.98,6880.94 4955.71,6880.95 4953.33,6882.45"/>
    </edge>
    <edge id=":1913884051_1" function="internal">
        <lane id=":1913884051_1_0" index="0" allow="private emergency authority army vip passenger hov taxi bus coach delivery truck trailer motorcycle evehicle custom1 custom2" speed="31.29" length="8.34" shape="4968.24,6885.08 4962.78,6891.08"/>
        <lane id=":1913884051_1_1" index="1" allow="private emergency authority army vip passenger hov taxi bus coach delivery truck trailer motorcycle evehicle custom1 custom2" speed="31.29" length="8.34" shape="4965.98,6882.81 4960.42,6888.92"/>
        <lane id=":1913884051_1_2" index="2" allow="private emergency authority army vip passenger hov taxi bus coach delivery truck trailer motorcycle evehicle custom1 custom2" speed="31.29" length="8.34" shape="4963.72,6880.54 4958.06,6886.76"/>
        <lane id=":1913884051_1_3" index="3" allow="private emergency authority army vip passenger hov taxi bus coach delivery truck trailer motorcycle evehicle custom1 custom2" speed="31.29" length="8.34" shape="4961.46,6878.26 4955.69,6884.61"/>
    </edge>
    <edge id=":202177572_0" function="internal">
        <lane id=":202177572_0_0" index="0" allow="private emergency authority army vip passenger hov taxi bus coach delivery truck trailer motorcycle evehicle custom1 custom2" speed="26.75" length="8.18" shape="2988.75,9051.86 2983.06,9057.74"/>
    </edge>
    <edge id=":202177572_1" function="internal">
        <lane id=":202177572_1_0" index="0" allow="private emergency authority army vip passenger hov taxi bus coach delivery truck trailer motorcycle evehicle custom1 custom2" speed="31.29" length="7.80" shape="2986.39,9049.69 2980.81,9055.45"/>
        <lane id=":202177572_1_1" index="1" allow="private emergency authority army vip passenger hov taxi bus coach delivery truck trailer motorcycle evehicle custom1 custom2" speed="31.29" length="7.80" shape="2984.04,9047.52 2978.56,9053.18"/>
        <lane id=":202177572_1_2" index="2" allow="private emergency authority army vip passenger hov taxi bus coach delivery truck trailer motorcycle evehicle custom1 custom2" speed="31.29" length="7.80" shape="2981.69,9045.35 2976.31,9050.90"/>
        <lane id=":202177572_1_3" index="3" allow="private emergency authority army vip passenger hov taxi bus coach delivery truck trailer motorcycle evehicle custom1 custom2" speed="31.29" length="7.80" shape="2979.33,9043.19 2974.06,9048.62"/>
    </edge>
    <edge id=":202177579_0" function="internal">
        <lane id=":202177579_0_0" index="0" allow="private emergency authority army vip passenger hov taxi bus coach delivery truck trailer motorcycle evehicle custom1 custom2" speed="22.22" length="8.04" shape="2715.65,9506.38 2718.63,9498.92"/>
    </edge>
    <edge id=":202177579_1" function="internal">
        <lane id=":202177579_1_0" index="0" allow="private emergency authority army vip passenger hov taxi bus coach delivery truck trailer motorcycle evehicle custom1 custom2" speed="22.22" length="8.18" shape="2718.58,9507.66 2719.56,9505.44 2720.27,9503.93 2721.06,9502.47 2722.27,9500.37"/>
    </edge>
    <edge id=":202185444_0" function="internal">
        <lane id=":202185444_0_0" index="0" allow="private emergency authority army vip passenger hov taxi bus coach delivery truck trailer motorcycle evehicle custom1 custom2" speed="26.75" length="7.98" shape="2490.58,9440.46 2483.97,9444.94"/>
    </edge>
    <edge id=":202185444_1" function="internal">
        <lane id=":202185444_1_0" index="0" allow="private emergency authority army vip passenger hov taxi bus coach delivery truck trailer motorcycle evehicle custom1 custom2" speed="31.29" length="8.00" shape="2488.63,9437.70 2482.11,9442.33"/>
        <lane id=":202185444_1_1" index="1" allow="private emergency authority army vip passenger hov taxi bus coach delivery truck trailer motorcycle evehicle custom1 custom2" speed="31.29" length="8.00" shape="2486.78,9435.10 2480.26,9439.73"/>
        <lane id=":202185444_1_2" index="2" allow="private emergency authority army vip passenger hov taxi bus coach delivery truck trailer motorcycle evehicle custom1 custom2" speed="31.29" length="8.00" shape="2484.92,9432.49 2478.40,9437.12"/>
        <lane id=":202185444_1_3" index="3" allow="private emergency authority army vip passenger hov taxi bus coach delivery truck trailer motorcycle evehicle custom1 custom2" speed="31.29" length="8.00" shape="2483.07,9429.88 2476.54,9434.51"/>
    </edge>
    <edge id=":202186118_0" function="internal">
        <lane id=":202186118_0_0" index="0" allow="private emergency authority army vip passenger hov taxi bus coach delivery truck trailer motorcycle evehicle custom1 custom2" speed="26.75" length="8.20" shape="1667.71,9979.84 1669.69,9978.42 1671.01,9977.41 1672.28,9976.32 1674.07,9974.68"/>
    </edge>
    <edge id=":202186118_1" function="internal">
        <lane id=":202186118_1_0" index="0" allow="private emergency authority army vip passenger hov taxi bus coach delivery truck trailer motorcycle evehicle custom1 custom2" speed="31.29" length="8.17" shape="1669.56,9982.45 1676.25,9977.72"/>
        <lane id=":202186118_1_1" index="1" allow="private emergency authority army vip passenger hov taxi bus coach delivery truck trailer motorcycle evehicle custom1 custom2" speed="31.29" length="8.17" shape="1671.42,9985.06 1678.09,9980.34"/>
        <lane id=":202186118_1_2" index="2" allow="private emergency authority army vip passenger hov taxi bus coach delivery truck trailer motorcycle evehicle custom1 custom2" speed="31.29" length="8.17" shape="1673.27,9987.66 1679.93,9982.95"/>
        <lane id=":202186118_1_3" index="3" allow="private emergency authority army vip passenger hov taxi bus coach delivery truck trailer motorcycle evehicle custom1 custom2" speed="31.29" length="8.17" shape="1675.12,9990.27 1681.78,9985.57"/>
    </edge>
    <edge id=":202186134_0" function="internal">
        <lane id=":202186134_0_0" index="0" allow="private emergency authority army vip passenger hov taxi bus coach delivery truck trailer motorcycle evehicle custom1 custom2" speed="26.75" length="8.03" shape="2229.84,9579.20 2236.44,9574.62"/>
    </edge>
    <edge id=":202186134_1" function="internal">
        <lane id=":202186134_1_0" index="0" allow="private emergency authority army vip passenger hov taxi bus coach delivery truck trailer motorcycle evehicle custom1 custom2" speed="31.29" length="7.99" shape="2231.76,9581.88 2238.29,9577.23"/>
        <lane id=":202186134_1_1" index="1" allow="private emergency authority army vip passenger hov taxi bus coach delivery truck trailer motorcycle evehicle custom1 custom2" speed="31.29" length="7.99" shape="2233.62,9584.48 2240.14,9579.84"/>
        <lane id=":202186134_1_2" index="2" allow="private emergency authority army vip passenger hov taxi bus coach delivery truck trailer motorcycle evehicle custom1 custom2" speed="31.29" length="7.99" shape="2235.49,9587.08 2242.00,9582.45"/>
        <lane id=":202186134_1_3" index="3" allow="private emergency authority army vip passenger hov taxi bus coach delivery truck trailer motorcycle evehicle custom1 custom2" speed="31.29" length="7.99" shape="2237.35,9589.68 2243.85,9585.06"/>
    </edge>
    <edge id=":202192528_0" function="internal">
        <lane id=":202192528_0_0" index="0" allow="private emergency authority army vip passenger hov taxi bus coach delivery truck trailer motorcycle evehicle custom1 custom2" speed="26.75" length="8.16" shape="1710.80,9993.13 1708.70,9994.33 1707.28,9995.19 1705.90,9996.12 1703.93,9997.51"/>
    </edge>
    <edge id=":202192528_1" function="internal">
        <lane id=":202192528_1_0" index="0" allow="private emergency authority army vip passenger hov taxi bus coach delivery truck trailer motorcycle evehicle custom1 custom2" speed="31.29" length="8.21" shape="1708.78,9990.14 1702.08,9994.90"/>